; Filename: temp2.inp
; WNTR: 0.4.1
; Created: 2021-09-27 20:15:53
[TITLE]

[JUNCTIONS]
;ID                      Elevation       Demand Pattern                 
 JUNCTION-0                        25              10 PATTERN-0                  ;
 JUNCTION-1                        31              10 PATTERN-0                  ;
 JUNCTION-2                        42              10 PATTERN-0                  ;
 JUNCTION-3                        33              20 PATTERN-1                  ;
 JUNCTION-4                        45              20 PATTERN-1                  ;
 JUNCTION-5                        55              20 PATTERN-1                  ;
 JUNCTION-6                        47               0 PATTERN-2                  ;
 JUNCTION-7                        40               0 PATTERN-2                  ;
 JUNCTION-8                        33            1.68 PATTERN-2                  ;
 JUNCTION-9                        35            4.76 PATTERN-2                  ;
 JUNCTION-10                       35               0 PATTERN-2                  ;
 JUNCTION-11                       35               0 PATTERN-2                  ;
 JUNCTION-12                       51            4.98 PATTERN-2                  ;
 JUNCTION-13                       32            0.04 PATTERN-2                  ;
 JUNCTION-14                       50               0 PATTERN-2                  ;
 JUNCTION-15                       61               0 PATTERN-2                  ;
 JUNCTION-16                       65            23.3 PATTERN-2                  ;
 JUNCTION-17                       80               0 PATTERN-2                  ;
 JUNCTION-18                       80           48.56 PATTERN-2                  ;
 JUNCTION-19                       40               0 PATTERN-2                  ;
 JUNCTION-20                       45             1.5 PATTERN-2                  ;
 JUNCTION-21                       27           28.76 PATTERN-2                  ;
 JUNCTION-22                       33            4.56 PATTERN-2                  ;
 JUNCTION-23                       23               0 PATTERN-2                  ;
 JUNCTION-24                       23           14.54 PATTERN-2                  ;
 JUNCTION-25                       30            2.54 PATTERN-2                  ;
 JUNCTION-26                       13               3 PATTERN-2                  ;
 JUNCTION-27                       10               0 PATTERN-2                  ;
 JUNCTION-28                       12               0 PATTERN-2                  ;
 JUNCTION-29                       16               0 PATTERN-2                  ;
 JUNCTION-30                       23           33.32 PATTERN-2                  ;
 JUNCTION-31                       23               0 PATTERN-2                  ;
 JUNCTION-32                       23           16.62 PATTERN-2                  ;
 JUNCTION-33                       15               0 PATTERN-2                  ;
 JUNCTION-34                       30           13.66 PATTERN-2                  ;
 JUNCTION-35                       29               0 PATTERN-2                  ;
 JUNCTION-36                       30               0 PATTERN-2                  ;
 JUNCTION-37                       38               0 PATTERN-2                  ;
 JUNCTION-38                       44           14.76 PATTERN-2                  ;
 JUNCTION-39                       47            0.14 PATTERN-2                  ;
 JUNCTION-40                       48           26.16 PATTERN-2                  ;
 JUNCTION-41                       80            42.1 PATTERN-2                  ;
 JUNCTION-42                       80               0 PATTERN-2                  ;
 JUNCTION-43                       60               0 PATTERN-2                  ;
 JUNCTION-44                       82            8.86 PATTERN-2                  ;
 JUNCTION-45                       60           17.54 PATTERN-2                  ;
 JUNCTION-46                       70           12.72 PATTERN-2                  ;
 JUNCTION-47                       20               0 PATTERN-2                  ;
 JUNCTION-48                       26               0 PATTERN-2                  ;
 JUNCTION-49                       25               0 PATTERN-2                  ;
 JUNCTION-50                       20          350.28 PATTERN-2                  ;
 JUNCTION-51                       17               0 PATTERN-2                  ;
 JUNCTION-52                       18           18.42 PATTERN-2                  ;
 JUNCTION-53                       30           52.54 PATTERN-2                  ;
 JUNCTION-54                       19           35.72 PATTERN-2                  ;
 JUNCTION-55                       15               0 PATTERN-2                  ;
 JUNCTION-56                       18               0 PATTERN-2                  ;
 JUNCTION-57                       18               0 PATTERN-2                  ;
 JUNCTION-58                       18               0 PATTERN-2                  ;
 JUNCTION-59                       18               0 PATTERN-2                  ;
 JUNCTION-60                       18               0 PATTERN-2                  ;
 JUNCTION-61                       16               0 PATTERN-2                  ;
 JUNCTION-62                       15               0 PATTERN-2                  ;
 JUNCTION-63                       15               0 PATTERN-2                  ;
 JUNCTION-64                       15               0 PATTERN-2                  ;
 JUNCTION-65                       15               0 PATTERN-2                  ;
 JUNCTION-66                       17               0 PATTERN-2                  ;
 JUNCTION-67                       60               0 PATTERN-2                  ;
 JUNCTION-68                       60               0 PATTERN-2                  ;
 JUNCTION-69                       65               0 PATTERN-2                  ;
 JUNCTION-70                       70               0 PATTERN-2                  ;
 JUNCTION-71                       80               0 PATTERN-2                  ;
 JUNCTION-72                       75               0 PATTERN-2                  ;
 JUNCTION-73                       85               0 PATTERN-2                  ;
 JUNCTION-74                       15             0.7 PATTERN-2                  ;
 JUNCTION-75                       40             0.2 PATTERN-2                  ;
 JUNCTION-76                       20               0 PATTERN-2                  ;
 JUNCTION-77                       20               0 PATTERN-2                  ;
 JUNCTION-78                       20               0 PATTERN-2                  ;
 JUNCTION-79                       30               0 PATTERN-2                  ;
 JUNCTION-80                       39               0 PATTERN-2                  ;
 JUNCTION-81                       38           34.12 PATTERN-2                  ;
 JUNCTION-82                       44               0 PATTERN-2                  ;
 JUNCTION-83                       48           50.64 PATTERN-2                  ;
 JUNCTION-84                       90               0 PATTERN-2                  ;
 JUNCTION-85                      103             3.4 PATTERN-2                  ;
 JUNCTION-86                       48           13.62 PATTERN-2                  ;
 JUNCTION-87                       26               0 PATTERN-2                  ;
 JUNCTION-88                       20            0.86 PATTERN-2                  ;
 JUNCTION-89                       21               0 PATTERN-2                  ;
 JUNCTION-90                       21               0 PATTERN-2                  ;
 JUNCTION-91                       21            9.72 PATTERN-2                  ;
 JUNCTION-92                       16               0 PATTERN-2                  ;
 JUNCTION-93                       18           19.38 PATTERN-2                  ;
 JUNCTION-94                       18               0 PATTERN-2                  ;
 JUNCTION-95                       29           26.68 PATTERN-2                  ;
 JUNCTION-96                       28            10.7 PATTERN-2                  ;
 JUNCTION-97                       36           55.86 PATTERN-2                  ;
 JUNCTION-98                       36           65.82 PATTERN-2                  ;
 JUNCTION-99                       30               0 PATTERN-2                  ;
 JUNCTION-100                      24               0 PATTERN-2                  ;
 JUNCTION-101                      23           186.6 PATTERN-2                  ;
 JUNCTION-102                      17               0 PATTERN-2                  ;
 JUNCTION-103                      17               0 PATTERN-2                  ;
 JUNCTION-104                      17               0 PATTERN-2                  ;
 JUNCTION-105                      19            1.42 PATTERN-2                  ;
 JUNCTION-106                      18               0 PATTERN-2                  ;
 JUNCTION-107                      18               0 PATTERN-2                  ;
 JUNCTION-108                      30               0 PATTERN-2                  ;
 JUNCTION-109                      36            69.5 PATTERN-2                  ;
 JUNCTION-110                      47               0 PATTERN-2                  ;
 JUNCTION-111                      70               0 PATTERN-2                  ;
 JUNCTION-112                      72           33.04 PATTERN-2                  ;
 JUNCTION-113                      72           35.12 PATTERN-2                  ;
 JUNCTION-114                      39               0 PATTERN-2                  ;
 JUNCTION-115                      30            60.2 PATTERN-2                  ;
 JUNCTION-116                      47           64.88 PATTERN-2                  ;
 JUNCTION-117                      20               0 PATTERN-2                  ;
 JUNCTION-118                      39               0 PATTERN-2                  ;
 JUNCTION-119                      35               0 PATTERN-2                  ;
 JUNCTION-120                      20               0 PATTERN-2                  ;
 JUNCTION-121                      31               0 PATTERN-2                  ;
 JUNCTION-122                      20               0 PATTERN-2                  ;
 JUNCTION-123                      58             9.7 PATTERN-2                  ;
 JUNCTION-124                      58               0 PATTERN-2                  ;
 JUNCTION-125                      55               0 PATTERN-2                  ;
 JUNCTION-126                      53           53.96 PATTERN-2                  ;
 JUNCTION-127                      60           20.26 PATTERN-2                  ;
 JUNCTION-128                      58               0 PATTERN-2                  ;
 JUNCTION-129                      58           25.02 PATTERN-2                  ;
 JUNCTION-130                      43           24.24 PATTERN-2                  ;
 JUNCTION-131                      40           79.74 PATTERN-2                  ;
 JUNCTION-132                      46           16.08 PATTERN-2                  ;
 JUNCTION-133                      42               0 PATTERN-2                  ;
 JUNCTION-134                      40             9.2 PATTERN-2                  ;
 JUNCTION-135                      40               0 PATTERN-2                  ;
 JUNCTION-136                      55           25.34 PATTERN-2                  ;
 JUNCTION-137                      59               0 PATTERN-2                  ;
 JUNCTION-138                      60           305.3 PATTERN-2                  ;
 JUNCTION-139                      97            19.8 PATTERN-2                  ;
 JUNCTION-140                      96           21.68 PATTERN-2                  ;
 JUNCTION-141                      60               0 PATTERN-2                  ;
 JUNCTION-142                      62           44.54 PATTERN-2                  ;
 JUNCTION-143                      60           32.96 PATTERN-2                  ;
 JUNCTION-144                      58           37.14 PATTERN-2                  ;
 JUNCTION-145                      60               0 PATTERN-2                  ;
 JUNCTION-146                      76               0 PATTERN-2                  ;
 JUNCTION-147                      77           37.22 PATTERN-2                  ;
 JUNCTION-148                      70               0 PATTERN-2                  ;
 JUNCTION-149                      70               0 PATTERN-2                  ;
 JUNCTION-150                      70           30.14 PATTERN-2                  ;
 JUNCTION-151                      67               0 PATTERN-2                  ;
 JUNCTION-152                      70               0 PATTERN-2                  ;
 JUNCTION-153                      70               0 PATTERN-2                  ;
 JUNCTION-154                      70            20.6 PATTERN-2                  ;
 JUNCTION-155                      60               0 PATTERN-2                  ;
 JUNCTION-156                      61               0 PATTERN-2                  ;
 JUNCTION-157                      70               0 PATTERN-2                  ;
 JUNCTION-158                      73               0 PATTERN-2                  ;
 JUNCTION-159                      77           18.76 PATTERN-2                  ;
 JUNCTION-160                      77            0.12 PATTERN-2                  ;
 JUNCTION-161                      73           55.44 PATTERN-2                  ;
 JUNCTION-162                      59               0 PATTERN-2                  ;
 JUNCTION-163                      58               0 PATTERN-2                  ;
 JUNCTION-164                      56           22.92 PATTERN-2                  ;
 JUNCTION-165                      57               0 PATTERN-2                  ;
 JUNCTION-166                      58               0 PATTERN-2                  ;
 JUNCTION-167                      75               0 PATTERN-2                  ;
 JUNCTION-168                      52               0 PATTERN-2                  ;
 JUNCTION-169                      48            42.8 PATTERN-2                  ;
 JUNCTION-170                      65           17.08 PATTERN-2                  ;
 JUNCTION-171                      65              22 PATTERN-2                  ;
 JUNCTION-172                      70               0 PATTERN-2                  ;
 JUNCTION-173                      75           25.56 PATTERN-2                  ;
 JUNCTION-174                      76               0 PATTERN-2                  ;
 JUNCTION-175                      72               0 PATTERN-2                  ;
 JUNCTION-176                      72               0 PATTERN-2                  ;
 JUNCTION-177                      65               0 PATTERN-2                  ;
 JUNCTION-178                      60           14.56 PATTERN-2                  ;
 JUNCTION-179                      62               0 PATTERN-2                  ;
 JUNCTION-180                      61           57.66 PATTERN-2                  ;
 JUNCTION-181                      75              32 PATTERN-2                  ;
 JUNCTION-182                      67               0 PATTERN-2                  ;
 JUNCTION-183                      68           77.84 PATTERN-2                  ;
 JUNCTION-184                      70           69.72 PATTERN-2                  ;
 JUNCTION-185                      73               0 PATTERN-2                  ;
 JUNCTION-186                      75               0 PATTERN-2                  ;
 JUNCTION-187                      75               0 PATTERN-2                  ;
 JUNCTION-188                      84            48.1 PATTERN-2                  ;
 JUNCTION-189                      69           34.42 PATTERN-2                  ;
 JUNCTION-190                      77               0 PATTERN-2                  ;
 JUNCTION-191                      76               0 PATTERN-2                  ;
 JUNCTION-192                      77            34.1 PATTERN-2                  ;
 JUNCTION-193                      76           19.46 PATTERN-2                  ;
 JUNCTION-194                      76               0 PATTERN-2                  ;
 JUNCTION-195                      60               0 PATTERN-2                  ;
 JUNCTION-196                      60               0 PATTERN-2                  ;
 JUNCTION-197                      62               0 PATTERN-2                  ;
 JUNCTION-198                      41               0 PATTERN-2                  ;
 JUNCTION-199                      39               0 PATTERN-2                  ;
 JUNCTION-200                      28          139.02 PATTERN-2                  ;
 JUNCTION-201                      26             4.4 PATTERN-2                  ;
 JUNCTION-202                      20            0.34 PATTERN-2                  ;
 JUNCTION-203                      31               0 PATTERN-2                  ;
 JUNCTION-204                      38             4.3 PATTERN-2                  ;
 JUNCTION-205                      28               0 PATTERN-2                  ;
 JUNCTION-206                      26            8.54 PATTERN-2                  ;
 JUNCTION-207                      25               0 PATTERN-2                  ;
 JUNCTION-208                      20               0 PATTERN-2                  ;
 JUNCTION-209                      24               0 PATTERN-2                  ;
 JUNCTION-210                      25            19.3 PATTERN-2                  ;
 JUNCTION-211                      24           32.38 PATTERN-2                  ;
 JUNCTION-212                      24               0 PATTERN-2                  ;
 JUNCTION-213                      25               0 PATTERN-2                  ;
 JUNCTION-214                      29           18.92 PATTERN-2                  ;
 JUNCTION-215                      30            3.96 PATTERN-2                  ;
 JUNCTION-216                      26           17.32 PATTERN-2                  ;
 JUNCTION-217                      33               0 PATTERN-2                  ;
 JUNCTION-218                      34            0.64 PATTERN-2                  ;
 JUNCTION-219                      33               0 PATTERN-2                  ;
 JUNCTION-220                      50               0 PATTERN-2                  ;
 JUNCTION-221                      48               0 PATTERN-2                  ;
 JUNCTION-222                      50               0 PATTERN-2                  ;
 JUNCTION-223                      50               0 PATTERN-2                  ;
 JUNCTION-224                      50               0 PATTERN-2                  ;
 JUNCTION-225                      45            20.2 PATTERN-2                  ;
 JUNCTION-226                      40               0 PATTERN-2                  ;
 JUNCTION-227                      42            30.2 PATTERN-2                  ;
 JUNCTION-228                      58               0 PATTERN-2                  ;
 JUNCTION-229                      62               0 PATTERN-2                  ;
 JUNCTION-230                      63            8.56 PATTERN-2                  ;
 JUNCTION-231                      64               0 PATTERN-2                  ;
 JUNCTION-232                      56               0 PATTERN-2                  ;
 JUNCTION-233                      56            1.12 PATTERN-2                  ;
 JUNCTION-234                      55           20.66 PATTERN-2                  ;
 JUNCTION-235                      65           41.96 PATTERN-2                  ;
 JUNCTION-236                      60           47.72 PATTERN-2                  ;
 JUNCTION-237                      72           51.62 PATTERN-2                  ;
 JUNCTION-238                      70               0 PATTERN-2                  ;
 JUNCTION-239                      70               0 PATTERN-2                  ;
 JUNCTION-240                     105               0 PATTERN-2                  ;
 JUNCTION-241                      72               0 PATTERN-2                  ;
 JUNCTION-242                     105           16.64 PATTERN-2                  ;
 JUNCTION-243                     100               0 PATTERN-2                  ;
 JUNCTION-244                      75               0 PATTERN-2                  ;
 JUNCTION-245                      75               0 PATTERN-2                  ;
 JUNCTION-246                      79               0 PATTERN-2                  ;
 JUNCTION-247                      98           44.56 PATTERN-2                  ;
 JUNCTION-248                      78            14.9 PATTERN-2                  ;
 JUNCTION-249                      75            8.44 PATTERN-2                  ;
 JUNCTION-250                      81               0 PATTERN-2                  ;
 JUNCTION-251                      95               0 PATTERN-2                  ;
 JUNCTION-252                      98           24.12 PATTERN-2                  ;
 JUNCTION-253                      95               0 PATTERN-2                  ;
 JUNCTION-254                      95               0 PATTERN-2                  ;
 JUNCTION-255                      90              10 PATTERN-2                  ;
 JUNCTION-256                      95               0 PATTERN-2                  ;
 JUNCTION-257                      95               0 PATTERN-2                  ;
 JUNCTION-258                      95               0 PATTERN-2                  ;
 JUNCTION-259                     100               0 PATTERN-2                  ;
 JUNCTION-260                      98               0 PATTERN-2                  ;
 JUNCTION-261                      81           81.04 PATTERN-2                  ;
 JUNCTION-262                      75           29.58 PATTERN-2                  ;
 JUNCTION-263                      70               0 PATTERN-2                  ;
 JUNCTION-264                      70            15.5 PATTERN-2                  ;
 JUNCTION-265                      64            13.2 PATTERN-2                  ;
 JUNCTION-266                      67           49.24 PATTERN-2                  ;
 JUNCTION-267                      68               0 PATTERN-2                  ;
 JUNCTION-268                      60           11.32 PATTERN-2                  ;
 JUNCTION-269                      56               0 PATTERN-2                  ;
 JUNCTION-270                      56               0 PATTERN-2                  ;
 JUNCTION-271                      52            10.1 PATTERN-2                  ;
 JUNCTION-272                      61           12.68 PATTERN-2                  ;
 JUNCTION-273                      62            17.3 PATTERN-2                  ;
 JUNCTION-274                      65               0 PATTERN-2                  ;
 JUNCTION-275                      60           29.18 PATTERN-2                  ;
 JUNCTION-276                      69           42.56 PATTERN-2                  ;
 JUNCTION-277                      65           25.04 PATTERN-2                  ;
 JUNCTION-278                      68               0 PATTERN-2                  ;
 JUNCTION-279                      63           56.18 PATTERN-2                  ;
 JUNCTION-280                      63            38.1 PATTERN-2                  ;
 JUNCTION-281                      64               0 PATTERN-2                  ;
 JUNCTION-282                      65               0 PATTERN-2                  ;
 JUNCTION-283                      69               0 PATTERN-2                  ;
 JUNCTION-284                      68           76.06 PATTERN-2                  ;
 JUNCTION-285                      73               0 PATTERN-2                  ;
 JUNCTION-286                      72               0 PATTERN-2                  ;
 JUNCTION-287                      72               0 PATTERN-2                  ;
 JUNCTION-288                      74            49.6 PATTERN-2                  ;
 JUNCTION-289                      61               0 PATTERN-2                  ;
 JUNCTION-290                      40               0 PATTERN-2                  ;
 JUNCTION-291                      39           27.04 PATTERN-2                  ;
 JUNCTION-292                      35           38.14 PATTERN-2                  ;
 JUNCTION-293                      35               0 PATTERN-2                  ;
 JUNCTION-294                      30               0 PATTERN-2                  ;
 JUNCTION-295                      66           19.58 PATTERN-2                  ;
 JUNCTION-296                      65               0 PATTERN-2                  ;
 JUNCTION-297                      58               0 PATTERN-2                  ;
 JUNCTION-298                      45               0 PATTERN-2                  ;
 JUNCTION-299                      38               0 PATTERN-2                  ;
 JUNCTION-300                      60               0 PATTERN-2                  ;
 JUNCTION-301                      48               0 PATTERN-2                  ;
 JUNCTION-302                      32           65.36 PATTERN-2                  ;
 JUNCTION-303                      30            17.8 PATTERN-2                  ;
 JUNCTION-304                      48               0 PATTERN-2                  ;
 JUNCTION-305                      45           52.52 PATTERN-2                  ;
 JUNCTION-306                      39               0 PATTERN-2                  ;
 JUNCTION-307                      38               0 PATTERN-2                  ;
 JUNCTION-308                      35           68.98 PATTERN-2                  ;
 JUNCTION-309                      45               0 PATTERN-2                  ;
 JUNCTION-310                      45               0 PATTERN-2                  ;
 JUNCTION-311                      42            31.4 PATTERN-2                  ;
 JUNCTION-312                      52               0 PATTERN-2                  ;
 JUNCTION-313                      58           26.94 PATTERN-2                  ;
 JUNCTION-314                      56           24.64 PATTERN-2                  ;
 JUNCTION-315                      75               0 PATTERN-2                  ;
 JUNCTION-316                      88               0 PATTERN-2                  ;
 JUNCTION-317                      88               0 PATTERN-2                  ;
 JUNCTION-318                      85           44.14 PATTERN-2                  ;
 JUNCTION-319                      84           30.24 PATTERN-2                  ;
 JUNCTION-320                      83               0 PATTERN-2                  ;
 JUNCTION-321                      82               0 PATTERN-2                  ;
 JUNCTION-322                      75               0 PATTERN-2                  ;
 JUNCTION-323                     101               0 PATTERN-2                  ;
 JUNCTION-324                     100           24.66 PATTERN-2                  ;
 JUNCTION-325                     101               0 PATTERN-2                  ;
 JUNCTION-326                      99               0 PATTERN-2                  ;
 JUNCTION-327                     100               0 PATTERN-2                  ;
 JUNCTION-328                      95               0 PATTERN-2                  ;
 JUNCTION-329                     100           59.26 PATTERN-2                  ;
 JUNCTION-330                      97               0 PATTERN-2                  ;
 JUNCTION-331                      97           70.74 PATTERN-2                  ;
 JUNCTION-332                     100           30.02 PATTERN-2                  ;
 JUNCTION-333                      94            68.8 PATTERN-2                  ;
 JUNCTION-334                      82           46.56 PATTERN-2                  ;
 JUNCTION-335                      68            87.9 PATTERN-2                  ;
 JUNCTION-336                      72               0 PATTERN-2                  ;
 JUNCTION-337                      75           10.54 PATTERN-2                  ;
 JUNCTION-338                      67               0 PATTERN-2                  ;
 JUNCTION-339                      71               0 PATTERN-2                  ;
 JUNCTION-340                      71           43.46 PATTERN-2                  ;
 JUNCTION-341                      65           17.68 PATTERN-2                  ;
 JUNCTION-342                      40           96.16 PATTERN-2                  ;
 JUNCTION-343                      41           39.44 PATTERN-2                  ;
 JUNCTION-344                      35            90.4 PATTERN-2                  ;
 JUNCTION-345                      30               0 PATTERN-2                  ;
 JUNCTION-346                      30           51.32 PATTERN-2                  ;
 JUNCTION-347                      30               0 PATTERN-2                  ;
 JUNCTION-348                      29               0 PATTERN-2                  ;
 JUNCTION-349                      32               0 PATTERN-2                  ;
 JUNCTION-350                      32           27.26 PATTERN-2                  ;
 JUNCTION-351                      31           31.18 PATTERN-2                  ;
 JUNCTION-352                      32           54.92 PATTERN-2                  ;
 JUNCTION-353                      32               0 PATTERN-2                  ;
 JUNCTION-354                      30               0 PATTERN-2                  ;
 JUNCTION-355                      30               0 PATTERN-2                  ;
 JUNCTION-356                      30               0 PATTERN-2                  ;
 JUNCTION-357                      31            5.66 PATTERN-2                  ;
 JUNCTION-358                      30            80.6 PATTERN-2                  ;