[TITLE]


[JUNCTIONS]
;ID              	Elev        	Demand      	Pattern         
 J-1             	715.4852    	0.67        	1               	;
 J-10            	802.0012    	3.13        	1               	;
 J-100           	639.9124    	6.11        	1               	;
 J-101           	700.7612    	4.33        	1               	;
 J-102           	621.9796    	0.23        	1               	;
 J-103           	621.7491    	0.42        	1               	;
 J-104           	619.5659    	0.28        	1               	;
 J-105           	626.046     	0.59        	1               	;
 J-106           	665.4579    	0.97        	1               	;
 J-107           	739.5731    	0.15        	1               	;
 J-108           	623.8171    	0.59        	1               	;
 J-109           	620.7628    	0.47        	1               	;
 J-11            	698.2571    	10.52       	1               	;
 J-110           	638.4283    	0.04        	1               	;
 J-111           	638.0323    	0.14        	1               	;
 J-112           	634.5699    	0.09        	1               	;
 J-113           	673.9019    	5.25        	1               	;
 J-114           	668.1563    	3.78        	1               	;
 J-115           	667.7916    	0.57        	1               	;
 J-116           	642.2203    	0.89        	1               	;
 J-117           	633.15      	0.21        	1               	;
 J-118           	635.4484    	0.11        	1               	;
 J-119           	643.2867    	0.06        	1               	;
 J-12            	623.6611    	0           	                	;
 J-120           	619.5771    	0.2         	1               	;
 J-121           	622.762     	0.66        	1               	;
 J-122           	643.6099    	0.05        	1               	;
 J-123           	636.9052    	3.85        	1               	;
 J-124           	697.7371    	0.75        	1               	;
 J-125           	705.3508    	3.09        	1               	;
 J-126           	723.2243    	1.64        	1               	;
 J-127           	631.718     	1.25        	1               	;
 J-128           	621.9003    	1.38        	1               	;
 J-129           	719.0187    	0.06        	1               	;
 J-13            	634.5547    	0           	                	;
 J-130           	704.8419    	0.07        	1               	;
 J-131           	658.4427    	0.78        	1               	;
 J-132           	680.4995    	0.36        	1               	;
 J-133           	759.306     	0.18        	1               	;
 J-134           	725.8531    	0.13        	1               	;
 J-135           	649.1763    	0.45        	1               	;
 J-136           	643.7571    	0.42        	1               	;
 J-137           	636.6516    	1.13        	1               	;
 J-138           	645.9891    	2.38        	1               	;
 J-139           	620.0699    	0.38        	1               	;
 J-13a           	905.1796    	3.95        	1               	;
 J-13b           	622.2595    	1.25        	1               	;
 J-14            	806.4268    	5.03        	1               	;
 J-140           	619.9971    	0.63        	1               	;
 J-141           	783.2603    	17.58       	1               	;
 J-142           	625.2731    	0.11        	1               	;
 J-143           	627.1508    	0.14        	1               	;
 J-144           	634.4019    	0.46        	1               	;
 J-145           	620.4268    	0.33        	1               	;
 J-146           	699.6443    	0.74        	1               	;
 J-147           	624.8555    	0.18        	1               	;
 J-148           	625.2947    	0.66        	1               	;
 J-149           	802.4315    	5.26        	1               	;
 J-15            	824.082     	9.13        	1               	;
 J-150           	925.8755    	2.45        	1               	;
 J-151           	643.1187    	1.71        	1               	;
 J-152           	626.4683    	1.5         	1               	;
 J-153           	642.046     	0.6         	1               	;
 J-154           	642.1812    	2.56        	1               	;
 J-155           	677.2571    	0.31        	1               	;
 J-156           	662.3964    	0.25        	1               	;
 J-157           	650.4459    	2.44        	1               	;
 J-158           	655.7643    	2.08        	1               	;
 J-159           	650.8203    	0.1         	1               	;
 J-16            	0           	0           	                	;
 J-160           	679.6804    	0.46        	1               	;
 J-161           	661.5947    	0.47        	1               	;
 J-162           	639.3771    	0.04        	1               	;
 J-163           	638.1492    	0.11        	1               	;
 J-164           	641.2747    	0.84        	1               	;
 J-165           	645.2203    	1.72        	1               	;
 J-166           	756.6212    	1.02        	1               	;
 J-167           	634.6635    	0.33        	1               	;
 J-168           	641.9099    	0.34        	1               	;
 J-169           	643.7996    	2.52        	1               	;
 J-17            	929.6475    	5.86        	1               	;
 J-170           	820.3596    	5.21        	1               	;
 J-171           	848.0195    	1.14        	1               	;
 J-172           	742.7131    	1.84        	1               	;
 J-173           	620.366     	2.15        	1               	;
 J-174           	621.6083    	2.4         	1               	;
 J-175           	647.8956    	0.27        	1               	;
 J-176           	634.0347    	0.56        	1               	;
 J-177           	633.8099    	0.1         	1               	;
 J-178           	747.5828    	0.12        	1               	;
 J-179           	760.3187    	0.18        	1               	;
 J-18            	622.9932    	0           	                	;
 J-180           	682.7932    	0.05        	1               	;
 J-181           	687.1787    	0.14        	1               	;
 J-182           	824.4644    	2.03        	1               	;
 J-183           	856.494     	0.53        	1               	;
 J-184           	621.5667    	0.06        	1               	;
 J-185           	621.5443    	0           	                	;
 J-186           	720.7003    	0.15        	1               	;
 J-187           	639.6196    	1.63        	1               	;
 J-188           	796.6956    	1.3         	1               	;
 J-189           	666.0995    	4.64        	1               	;
 J-19            	757.3187    	6.08        	1               	;
 J-190           	701.4459    	1.13        	1               	;
 J-191           	641.374     	0.18        	1               	;
 J-192           	642.4116    	0.09        	1               	;
 J-193           	641.4659    	0.47        	1               	;
 J-194           	628.7339    	0.09        	1               	;
 J-195           	626.0795    	2.69        	1               	;
 J-196           	634.2723    	2.09        	1               	;
 J-197           	626.5443    	0.64        	1               	;
 J-198           	636.4371    	0.52        	1               	;
 J-199           	636.7916    	5.45        	1               	;
 J-2             	673.218     	1.1         	1               	;
 J-20            	698.478     	0           	                	;
 J-200           	630.3051    	2.63        	1               	;
 J-201           	619.5659    	1.73        	1               	;
 J-202           	709.2067    	8.54        	1               	;
 J-203           	725.2227    	1.38        	1               	;
 J-204           	628.9644    	4.09        	1               	;
 J-205           	699.306     	0.85        	1               	;
 J-206           	681.7131    	1.16        	1               	;
 J-207           	678.6539    	3.17        	1               	;
 J-208           	666.538     	5.32        	1               	;
 J-209           	659.0908    	4.76        	1               	;
 J-21            	708.1627    	9.53        	1               	;
 J-210           	853.2419    	1.42        	1               	;
 J-211           	854.3372    	0.61        	1               	;
 J-212           	638.1851    	4.05        	1               	;
 J-213           	656.6124    	5.02        	1               	;
 J-214           	632.3563    	1.71        	1               	;
 J-215           	649.5491    	0.94        	1               	;
 J-216           	627.7795    	0.2         	1               	;
 J-217           	628.4451    	0.8         	1               	;
 J-218           	630.6915    	1.49        	1               	;
 J-219           	625.7036    	1.04        	1               	;
 J-22            	694.03      	0.88        	1               	;
 J-220           	624.0923    	2.6         	1               	;
 J-221           	623.5667    	0.74        	1               	;
 J-222           	623.5532    	0.25        	1               	;
 J-223           	825.7307    	4.97        	1               	;
 J-224           	830.5844    	4.23        	1               	;
 J-225           	640.9227    	3.71        	1               	;
 J-226           	621.5916    	3.88        	1               	;
 J-227           	634.6251    	0.59        	1               	;
 J-228           	624.4827    	0.67        	1               	;
 J-229           	624.8491    	0.13        	1               	;
 J-23            	730.4803    	0.35        	1               	;
 J-230           	634.6667    	0.72        	1               	;
 J-231           	772.9595    	1.38        	1               	;
 J-232           	619.5659    	0           	                	;
 J-233           	679.1907    	0           	                	;
 J-234           	642.1411    	9.93        	1               	;
 J-235           	768.9       	14.44       	1               	;
 J-236           	766.6923    	31.35       	1               	;
 J-237           	636.9443    	0.82        	1               	;
 J-238           	649.2731    	0.9         	1               	;
 J-239           	647.6891    	0.49        	1               	;
 J-24            	628.3411    	0.11        	1               	;
 J-240           	743.1451    	0.12        	1               	;
 J-241           	740.7947    	0.3         	1               	;
 J-242           	622.4579    	0.26        	1               	;
 J-243           	628.3467    	1.61        	1               	;
 J-244           	638.3076    	1.47        	1               	;
 J-245           	619.5659    	1.38        	1               	;
 J-246           	619.5659    	0.4         	1               	;
 J-247           	734.9108    	10.36       	1               	;
 J-248           	775.5283    	18.97       	1               	;
 J-249           	649.4484    	0.29        	1               	;
 J-25            	624.9899    	0.25        	1               	;
 J-250           	649.7852    	0.67        	1               	;
 J-251           	636.8812    	0.27        	1               	;
 J-252           	647.7612    	0.3         	1               	;
 J-253           	674.442     	0.71        	1               	;
 J-254           	700.942     	1.34        	1               	;
 J-255           	622.3483    	0.48        	1               	;
 J-256           	620.6779    	0.68        	1               	;
 J-257           	672.4083    	0.7         	1               	;
 J-258           	672.6219    	0.09        	1               	;
 J-259           	627.3284    	1.71        	1               	;
 J-26            	619.5667    	0.22        	1               	;
 J-260           	651.8707    	0.53        	1               	;
 J-261           	632.7419    	0.63        	1               	;
 J-262           	621.7139    	1.63        	1               	;
 J-263           	626.3812    	1.27        	1               	;
 J-264           	724.3875    	0.11        	1               	;
 J-265           	632.9587    	1.89        	1               	;
 J-266           	645.2411    	0.57        	1               	;
 J-267           	659.8323    	0.41        	1               	;
 J-268           	688.4003    	0.45        	1               	;
 J-269           	704.7443    	1.06        	1               	;
 J-27            	638.9355    	0.54        	1               	;
 J-270           	722.2388    	1.17        	1               	;
 J-271           	629.1467    	0.06        	1               	;
 J-272           	621.6811    	0.55        	1               	;
 J-273           	621.9075    	0.34        	1               	;
 J-274           	641.8707    	0.48        	1               	;
 J-275           	632.3419    	0.17        	1               	;
 J-276           	792.1003    	19.59       	1               	;
 J-277           	635.4196    	0.5         	1               	;
 J-278           	621.1732    	0.44        	1               	;
 J-279           	773.4       	20          	1               	;
 J-28            	645.0051    	0.72        	1               	;
 J-280           	633.6492    	0.13        	1               	;
 J-281           	670.6931    	0           	                	;
 J-282           	641.4716    	0.13        	1               	;
 J-283           	641.7115    	0.06        	1               	;
 J-284           	649.2083    	0.5         	1               	;
 J-285           	625.1859    	0.69        	1               	;
 J-286           	624.2819    	0.14        	1               	;
 J-287           	623.0275    	0.53        	1               	;
 J-288           	674.7755    	6.6         	1               	;
 J-289           	669.4644    	4.21        	1               	;
 J-29            	673.1644    	5.09        	1               	;
 J-290           	637.0323    	17.76       	1               	;
 J-291           	675.3875    	15.42       	1               	;
 J-292           	619.5659    	0.42        	1               	;
 J-293           	619.5659    	0.24        	1               	;
 J-294           	695.4011    	4.04        	1               	;
 J-295           	697.1075    	2.6         	1               	;
 J-296           	639.4467    	8.79        	1               	;
 J-297           	706.3       	6.24        	1               	;
 J-298           	671.4539    	0.09        	1               	;
 J-299           	701.2579    	2.2         	1               	;
 J-3             	625.1539    	0.63        	1               	;
 J-30            	654.8676    	8.93        	1               	;
 J-300           	672.3019    	0.05        	1               	;
 J-301           	673.6763    	0.07        	1               	;
 J-302           	648.114     	0.11        	1               	;
 J-303           	649.6779    	0.05        	1               	;
 J-304           	628.8939    	3.15        	1               	;
 J-305           	619.5659    	2.49        	1               	;
 J-306           	702.9564    	2.5         	1               	;
 J-307           	706.838     	7.85        	1               	;
 J-308           	619.5955    	0.41        	1               	;
 J-309           	644.3588    	0.1         	1               	;
 J-31            	671.4747    	3.91        	1               	;
 J-310           	645.0756    	0.13        	1               	;
 J-311           	631.7491    	0.41        	1               	;
 J-312           	767.0331    	6.31        	1               	;
 J-313           	621.5923    	0.43        	1               	;
 J-314           	624.8436    	0.4         	1               	;
 J-315           	651.6107    	0.38        	1               	;
 J-316           	624.7635    	0.44        	1               	;
 J-317           	631.3531    	0.23        	1               	;
 J-318           	702.1635    	5.11        	1               	;
 J-319           	703.6132    	2.9         	1               	;
 J-32            	729.4803    	0.9         	1               	;
 J-320           	707.7563    	1.37        	1               	;
 J-321           	646.5267    	0.48        	1               	;
 J-322           	648.8923    	0.09        	1               	;
 J-323           	709.7499    	2.56        	1               	;
 J-325           	822.0939    	1.6         	1               	;
 J-326           	637.3979    	3.65        	1               	;
 J-327           	627.4724    	0.36        	1               	;
 J-328           	620.2811    	0.64        	1               	;
 J-329           	642.3228    	0.23        	1               	;
 J-33            	623.2227    	0.37        	1               	;
 J-330           	641.4852    	0.75        	1               	;
 J-331           	687.4323    	2.87        	1               	;
 J-332           	683.9395    	0.81        	1               	;
 J-333           	733.1179    	2.95        	1               	;
 J-334           	752.2388    	1.13        	1               	;
 J-335           	665.8627    	0.42        	1               	;
 J-336           	638.5355    	0.88        	1               	;
 J-337           	720.5004    	1.51        	1               	;
 J-338           	672.2964    	2.52        	1               	;
 J-339           	647.9404    	6.88        	1               	;
 J-34            	623.2571    	0.77        	1               	;
 J-342           	742.7507    	3.65        	1               	;
 J-343           	671.5515    	0.34        	1               	;
 J-344           	658.3691    	0.33        	1               	;
 J-345           	620.366     	0.9         	1               	;
 J-346           	617.0723    	1.83        	1               	;
 J-347           	617.5627    	0.7         	1               	;
 J-348           	644.4995    	2.08        	1               	;
 J-35            	641.9963    	0.14        	1               	;
 J-351           	651.4875    	0.47        	1               	;
 J-352           	647.4651    	2.6         	1               	;
 J-353           	654.0419    	1.36        	1               	;
 J-354           	679.9059    	0.17        	1               	;
 J-355           	631.7252    	0.31        	1               	;
 J-356           	632.4044    	1.09        	1               	;
 J-357           	633.4628    	0.63        	1               	;
 J-358           	622.9716    	1.19        	1               	;
 J-359           	672.0372    	0.8         	1               	;
 J-36            	641.5731    	0.11        	1               	;
 J-360           	672.9907    	0.35        	1               	;
 J-361           	700.4203    	0.08        	1               	;
 J-362           	704.5275    	0.01        	1               	;
 J-363           	713.3715    	4.06        	1               	;
 J-364           	785.9547    	5.43        	1               	;
 J-365           	718.4435    	0.26        	1               	;
 J-366           	713.9587    	0.19        	1               	;
 J-367           	675.7172    	12.01       	1               	;
 J-368           	703.0571    	5.42        	1               	;
 J-369           	677.3292    	1.03        	1               	;
 J-37            	778.0251    	4.06        	1               	;
 J-370           	711.2803    	0.63        	1               	;
 J-371           	722.1387    	2.12        	1               	;
 J-372           	633.3907    	0.28        	1               	;
 J-373           	622.5988    	0.25        	1               	;
 J-374           	654.6307    	2.83        	1               	;
 J-375           	627.8051    	0.34        	1               	;
 J-376           	622.0828    	0.13        	1               	;
 J-377           	627.9515    	1.97        	1               	;
 J-378           	621.21      	1.11        	1               	;
 J-379           	628.2307    	0.52        	1               	;
 J-38            	798.7147    	4.58        	1               	;
 J-380           	629.382     	0.16        	1               	;
 J-381           	642.3707    	0.37        	1               	;
 J-382           	626.0771    	0.19        	1               	;
 J-383           	690.3243    	0.27        	1               	;
 J-384           	691.2955    	0.1         	1               	;
 J-385           	659.2795    	6.25        	1               	;
 J-386           	658.7419    	3.26        	1               	;
 J-39            	629.9371    	0.37        	1               	;
 J-390           	705.2139    	0.17        	1               	;
 J-391           	631.4395    	2.66        	1               	;
 J-392           	657.8019    	0.28        	1               	;
 J-393           	619.5659    	1.33        	1               	;
 J-394           	641.0411    	0.01        	1               	;
 J-395           	677.7795    	1.23        	1               	;
 J-396           	680.934     	1.58        	1               	;
 J-397           	649.4067    	0.45        	1               	;
 J-398           	636.2708    	1.49        	1               	;
 J-399           	643.9188    	0.25        	1               	;
 J-4             	802.2515    	7.95        	1               	;
 J-40            	633.3843    	0.34        	1               	;
 J-400           	630.6492    	0.33        	1               	;
 J-401           	630.6348    	0.31        	1               	;
 J-402           	656.674     	11.44       	1               	;
 J-403           	644.3531    	0.35        	1               	;
 J-404           	643.2203    	0.83        	1               	;
 J-405           	663.7971    	0.09        	1               	;
 J-406           	667.7028    	0.05        	1               	;
 J-407           	642.0779    	2.77        	1               	;
 J-408           	649.6011    	0.99        	1               	;
 J-409           	622.0139    	0.08        	1               	;
 J-41            	636.7147    	0           	                	;
 J-410           	765.8331    	3.52        	1               	;
 J-411           	800.4       	1.82        	1               	;
 J-412           	641.9659    	5.24        	1               	;
 J-413           	702.3291    	2.28        	1               	;
 J-414           	637.1619    	0.06        	1               	;
 J-415           	637.9011    	0.04        	1               	;
 J-416           	629.4636    	0.3         	1               	;
 J-417           	676.7579    	1.36        	1               	;
 J-418           	655.1292    	1.61        	1               	;
 J-419           	710.4412    	0.25        	1               	;
 J-42            	627.6699    	0           	                	;
 J-420           	627.3051    	0.09        	1               	;
 J-421           	721.4868    	0.94        	1               	;
 J-422           	643.8099    	0.18        	1               	;
 J-423           	640.6603    	0.32        	1               	;
 J-424           	634.7307    	0.53        	1               	;
 J-425           	635.2659    	3.51        	1               	;
 J-426           	647.8491    	2.3         	1               	;
 J-427           	624.2459    	0.07        	1               	;
 J-428           	648.226     	0.24        	1               	;
 J-429           	636.7548    	0.13        	1               	;
 J-43            	640.7235    	0.1         	1               	;
 J-430           	626.5219    	0.1         	1               	;
 J-431           	629.0859    	0.3         	1               	;
 J-432           	622.5099    	0.3         	1               	;
 J-433           	663.2595    	3.85        	1               	;
 J-434           	639.194     	3.67        	1               	;
 J-435           	619.9139    	0.28        	1               	;
 J-436           	619.5659    	0.39        	1               	;
 J-437           	624.3403    	0.15        	1               	;
 J-438           	626.0684    	0.11        	1               	;
 J-439           	630.4547    	0.33        	1               	;
 J-44            	642.6459    	0.1         	1               	;
 J-440           	624.4771    	0.1         	1               	;
 J-441           	644.0187    	0.68        	1               	;
 J-443           	646.9315    	0.52        	1               	;
 J-444           	633.478     	0.71        	1               	;
 J-445           	653.1531    	0.89        	1               	;
 J-446           	756.1692    	7.59        	1               	;
 J-447           	626.5244    	1.56        	1               	;
 J-448           	633.1331    	1.38        	1               	;
 J-449           	636.6964    	1.44        	1               	;
 J-45            	632.0723    	2.69        	1               	;
 J-450           	623.3604    	0.2         	1               	;
 J-451           	666.0451    	1.3         	1               	;
 J-452           	704.322     	3.71        	1               	;
 J-453           	767.0004    	0.26        	1               	;
 J-454           	652.8163    	10.56       	1               	;
 J-455           	632.726     	7.91        	1               	;
 J-456           	669.1787    	4.85        	1               	;
 J-457           	628.1035    	0.54        	1               	;
 J-458           	626.8964    	0.15        	1               	;
 J-459           	663.5891    	8.85        	1               	;
 J-46            	726.6171    	2.24        	1               	;
 J-460           	695.4283    	3.73        	1               	;
 J-461           	624.2227    	0.82        	1               	;
 J-462           	645.3179    	0.19        	1               	;
 J-463           	878.8331    	3.06        	1               	;
 J-464           	788.2731    	2.46        	1               	;
 J-465           	619.5659    	0.1         	1               	;
 J-466           	623.4731    	0.04        	1               	;
 J-467           	627.0123    	0.03        	1               	;
 J-468           	718.6923    	0.9         	1               	;
 J-469           	619.5659    	0.04        	1               	;
 J-47            	643.2603    	4.17        	1               	;
 J-470           	805.9251    	8.94        	1               	;
 J-471           	627.1724    	0.4         	1               	;
 J-472           	620.3995    	0.82        	1               	;
 J-473           	623.4659    	1.84        	1               	;
 J-474           	643.4315    	0.05        	1               	;
 J-475           	643.5084    	0.23        	1               	;
 J-476           	708.1868    	2.7         	1               	;
 J-477           	713.2883    	0.29        	1               	;
 J-478           	775.1       	0.48        	1               	;
 J-479           	659.7947    	1.03        	1               	;
 J-48            	668.674     	5.61        	1               	;
 J-480           	619.5659    	3.09        	1               	;
 J-481           	622.4412    	0.64        	1               	;
 J-482           	646.7548    	1.01        	1               	;
 J-483           	640.7484    	1.34        	1               	;
 J-484           	650.1843    	0.15        	1               	;
 J-485           	629.0547    	0.68        	1               	;
 J-486           	628.6227    	0.86        	1               	;
 J-487           	641.5947    	0.36        	1               	;
 J-488           	641.5635    	0.05        	1               	;
 J-489           	630.8467    	0.54        	1               	;
 J-49            	647.8347    	0.26        	1               	;
 J-490           	632.1572    	0.25        	1               	;
 J-491           	634.0507    	0.57        	1               	;
 J-492           	802.2659    	0.71        	1               	;
 J-493           	627.6891    	1.05        	1               	;
 J-494           	691.978     	0.28        	1               	;
 J-495           	626.5236    	0.03        	1               	;
 J-497           	677.9547    	0.38        	1               	;
 J-498           	708.0483    	4.83        	1               	;
 J-499           	624.3083    	0.27        	1               	;
 J-5             	631.5291    	2.36        	1               	;
 J-50            	682.0883    	0.24        	1               	;
 J-501           	621.4547    	0.86        	1               	;
 J-502           	656.0659    	4.9         	1               	;
 J-504           	699.5908    	7.69        	1               	;
 J-505           	695.0779    	1.72        	1               	;
 J-506           	819.5427    	3.28        	1               	;
 J-507           	641.9651    	0.38        	1               	;
 J-508           	643.9603    	0.35        	1               	;
 J-509           	622.6563    	0.25        	1               	;
 J-51            	641.2427    	1.83        	1               	;
 J-510           	621.9675    	0.3         	1               	;
 J-511           	620.366     	0.32        	1               	;
 J-512           	621.7043    	0.18        	1               	;
 J-513           	649.5355    	0.5         	1               	;
 J-514           	782.8547    	0.48        	1               	;
 J-515           	728.8757    	5.1         	1               	;
 J-516           	725.8       	1.47        	1               	;
 J-517           	675.4188    	0.58        	1               	;
 J-518           	623.1796    	0.01        	1               	;
 J-52            	644.8956    	0.49        	1               	;
 J-521           	736.2       	1.85        	1               	;
 J-522           	708.3784    	2.13        	1               	;
 J-523           	616.366     	2           	1               	;
 J-524           	620.5635    	0.19        	1               	;
 J-525           	633.3459    	0.74        	1               	;
 J-526           	652.3163    	1.4         	1               	;
 J-527           	760.806     	0.25        	1               	;
 J-528           	628.5443    	0.63        	1               	;
 J-529           	650.0443    	0.38        	1               	;
 J-53            	620.6132    	0.17        	1               	;
 J-530           	649.554     	0.28        	1               	;
 J-531           	636.5435    	0.61        	1               	;
 J-532           	631.9995    	0.47        	1               	;
 J-533           	643.0251    	0.41        	1               	;
 J-534           	623.6219    	0.08        	1               	;
 J-535           	669.9547    	3.01        	1               	;
 J-537           	694.6555    	3.83        	1               	;