[TITLE]
Network model used in Watson, J.P., Murray, R. and Hart, W.E., 2009. 
Formulation and optimization of robust sensor placement problems for 
drinking water contamination warning systems. Journal of 
Infrastructure Systems, 15(4), pp.330-339.

UPDATE: Controls modified to avoid circular flow
The following lines were added:
  Link LINK-1843 Open If Node TANK-3326 Above 29.5
  Link LINK-1843 Closed If Node TANK-3326 Below 18

UPDATE: Pump curves 29 and 30 were converted to 3 point curves.
Commented out the following lines:
  CURVE-29 280 0
  CURVE-30 280 0

UPDATE: Combined tanks 3328 and 3329 to prevent stability problems.
These two tanks are identical and should always have the same level.
However, with timesteps that are large, explicit euler is unstable,
and the two tanks oscillate (triggered by roundoff error). Each
tank has a diameter of 120.6. When replacing the two with a single
tank, the diameter should be 170.55415562219525. Link-1834
was originally connected to TANK-3329.

UPDATE: Combined tanks 3338 and 3339 to prevent stability problems.
See above comment. Each tank has a diameter of 119.1. When replacing
the two with a single tank, the diameter should be 168.43283527863562.
LINK-3185 was originally connected to TANK-3339.

[JUNCTIONS]
JUNCTION-0 25 0 PATTERN-2
JUNCTION-1 31 0 PATTERN-2
JUNCTION-2 42 0 PATTERN-2
JUNCTION-3 33 0 PATTERN-2
JUNCTION-4 45 0 PATTERN-2
JUNCTION-5 55 0 PATTERN-2
JUNCTION-6 47 0 PATTERN-2
JUNCTION-7 40 0 PATTERN-2
JUNCTION-8 33 1.68 PATTERN-2
JUNCTION-9 35 4.76 PATTERN-2
JUNCTION-10 35 0 PATTERN-2
JUNCTION-11 35 0 PATTERN-2
JUNCTION-12 51 4.98 PATTERN-2
JUNCTION-13 32 0.04 PATTERN-2
JUNCTION-14 50 0 PATTERN-2
JUNCTION-15 61 0 PATTERN-2
JUNCTION-16 65 23.3 PATTERN-2
JUNCTION-17 80 0 PATTERN-2
JUNCTION-18 80 48.56 PATTERN-2
JUNCTION-19 40 0 PATTERN-2
JUNCTION-20 45 1.5 PATTERN-2
JUNCTION-21 27 28.76 PATTERN-2
JUNCTION-22 33 4.56 PATTERN-2
JUNCTION-23 23 0 PATTERN-2
JUNCTION-24 23 14.54 PATTERN-2
JUNCTION-25 30 2.54 PATTERN-2
JUNCTION-26 13 3 PATTERN-2
JUNCTION-27 10 0 PATTERN-2
JUNCTION-28 12 0 PATTERN-2
JUNCTION-29 16 0 PATTERN-2
JUNCTION-30 23 33.32 PATTERN-2
JUNCTION-31 23 0 PATTERN-2
JUNCTION-32 23 16.62 PATTERN-2
JUNCTION-33 15 0 PATTERN-2
JUNCTION-34 30 13.66 PATTERN-2
JUNCTION-35 29 0 PATTERN-2
JUNCTION-36 30 0 PATTERN-2
JUNCTION-37 38 0 PATTERN-2
JUNCTION-38 44 14.76 PATTERN-2
JUNCTION-39 47 0.14 PATTERN-2
JUNCTION-40 48 26.16 PATTERN-2
JUNCTION-41 80 42.1 PATTERN-2
JUNCTION-42 80 0 PATTERN-2
JUNCTION-43 60 0 PATTERN-2
JUNCTION-44 82 8.86 PATTERN-2
JUNCTION-45 60 17.54 PATTERN-2
JUNCTION-46 70 12.72 PATTERN-2
JUNCTION-47 20 0 PATTERN-2
JUNCTION-48 26 0 PATTERN-2
JUNCTION-49 25 0 PATTERN-2
JUNCTION-50 20 350.28 PATTERN-2
JUNCTION-51 17 0 PATTERN-2
JUNCTION-52 18 18.42 PATTERN-2
JUNCTION-53 30 52.54 PATTERN-2
JUNCTION-54 19 35.72 PATTERN-2
JUNCTION-55 15 0 PATTERN-2
JUNCTION-56 18 0 PATTERN-2
JUNCTION-57 18 0 PATTERN-2
JUNCTION-58 18 0 PATTERN-2
JUNCTION-59 18 0 PATTERN-2
JUNCTION-60 18 0 PATTERN-2
JUNCTION-61 16 0 PATTERN-2
JUNCTION-62 15 0 PATTERN-2
JUNCTION-63 15 0 PATTERN-2
JUNCTION-64 15 0 PATTERN-2
JUNCTION-65 15 0 PATTERN-2
JUNCTION-66 17 0 PATTERN-2
JUNCTION-67 60 0 PATTERN-2
JUNCTION-68 60 0 PATTERN-2
JUNCTION-69 65 0 PATTERN-2
JUNCTION-70 70 0 PATTERN-2
JUNCTION-71 80 0 PATTERN-2
JUNCTION-72 75 0 PATTERN-2
JUNCTION-73 85 0 PATTERN-2
JUNCTION-74 15 0.7 PATTERN-2
JUNCTION-75 40 0.2 PATTERN-2
JUNCTION-76 20 0 PATTERN-2
JUNCTION-77 20 0 PATTERN-2
JUNCTION-78 20 0 PATTERN-2
JUNCTION-79 30 0 PATTERN-2
JUNCTION-80 39 0 PATTERN-2
JUNCTION-81 38 34.12 PATTERN-2
JUNCTION-82 44 0 PATTERN-2
JUNCTION-83 48 50.64 PATTERN-2
JUNCTION-84 90 0 PATTERN-2
JUNCTION-85 103 3.4 PATTERN-2
JUNCTION-86 48 13.62 PATTERN-2
JUNCTION-87 26 0 PATTERN-2
JUNCTION-88 20 0.86 PATTERN-2
JUNCTION-89 21 0 PATTERN-2
JUNCTION-90 21 0 PATTERN-2
JUNCTION-91 21 9.72 PATTERN-2
JUNCTION-92 16 0 PATTERN-2
JUNCTION-93 18 19.38 PATTERN-2
JUNCTION-94 18 0 PATTERN-2
JUNCTION-95 29 26.68 PATTERN-2
JUNCTION-96 28 10.7 PATTERN-2
JUNCTION-97 36 55.86 PATTERN-2
JUNCTION-98 36 65.82 PATTERN-2
JUNCTION-99 30 0 PATTERN-2
JUNCTION-100 24 0 PATTERN-2
JUNCTION-101 23 186.6 PATTERN-2
JUNCTION-102 17 0 PATTERN-2
JUNCTION-103 17 0 PATTERN-2
JUNCTION-104 17 0 PATTERN-2
JUNCTION-105 19 1.42 PATTERN-2
JUNCTION-106 18 0 PATTERN-2
JUNCTION-107 18 0 PATTERN-2
JUNCTION-108 30 0 PATTERN-2
JUNCTION-109 36 69.5 PATTERN-2
JUNCTION-110 47 0 PATTERN-2
JUNCTION-111 70 0 PATTERN-2
JUNCTION-112 72 33.04 PATTERN-2
JUNCTION-113 72 35.12 PATTERN-2
JUNCTION-114 39 0 PATTERN-2
JUNCTION-115 30 60.2 PATTERN-2
JUNCTION-116 47 64.88 PATTERN-2
JUNCTION-117 20 0 PATTERN-2
JUNCTION-118 39 0 PATTERN-2
JUNCTION-119 35 0 PATTERN-2
JUNCTION-120 20 0 PATTERN-2
JUNCTION-121 31 0 PATTERN-2
JUNCTION-122 20 0 PATTERN-2
JUNCTION-123 58 9.7 PATTERN-2
JUNCTION-124 58 0 PATTERN-2
JUNCTION-125 55 0 PATTERN-2
JUNCTION-126 53 53.96 PATTERN-2
JUNCTION-127 60 20.26 PATTERN-2
JUNCTION-128 58 0 PATTERN-2
JUNCTION-129 58 25.02 PATTERN-2
JUNCTION-130 43 24.24 PATTERN-2
JUNCTION-131 40 79.74 PATTERN-2
JUNCTION-132 46 16.08 PATTERN-2
JUNCTION-133 42 0 PATTERN-2
JUNCTION-134 40 9.2 PATTERN-2
JUNCTION-135 40 0 PATTERN-2
JUNCTION-136 55 25.34 PATTERN-2
JUNCTION-137 59 0 PATTERN-2
JUNCTION-138 60 305.3 PATTERN-2
JUNCTION-139 97 19.8 PATTERN-2
JUNCTION-140 96 21.68 PATTERN-2
JUNCTION-141 60 0 PATTERN-2
JUNCTION-142 62 44.54 PATTERN-2
JUNCTION-143 60 32.96 PATTERN-2
JUNCTION-144 58 37.14 PATTERN-2
JUNCTION-145 60 0 PATTERN-2
JUNCTION-146 76 0 PATTERN-2
JUNCTION-147 77 37.22 PATTERN-2
JUNCTION-148 70 0 PATTERN-2
JUNCTION-149 70 0 PATTERN-2
JUNCTION-150 70 30.14 PATTERN-2
JUNCTION-151 67 0 PATTERN-2
JUNCTION-152 70 0 PATTERN-2
JUNCTION-153 70 0 PATTERN-2
JUNCTION-154 70 20.6 PATTERN-2
JUNCTION-155 60 0 PATTERN-2
JUNCTION-156 61 0 PATTERN-2
JUNCTION-157 70 0 PATTERN-2
JUNCTION-158 73 0 PATTERN-2
JUNCTION-159 77 18.76 PATTERN-2
JUNCTION-160 77 0.12 PATTERN-2
JUNCTION-161 73 55.44 PATTERN-2
JUNCTION-162 59 0 PATTERN-2
JUNCTION-163 58 0 PATTERN-2
JUNCTION-164 56 22.92 PATTERN-2
JUNCTION-165 57 0 PATTERN-2
JUNCTION-166 58 0 PATTERN-2
JUNCTION-167 75 0 PATTERN-2
JUNCTION-168 52 0 PATTERN-2
JUNCTION-169 48 42.8 PATTERN-2
JUNCTION-170 65 17.08 PATTERN-2
JUNCTION-171 65 22 PATTERN-2
JUNCTION-172 70 0 PATTERN-2
JUNCTION-173 75 25.56 PATTERN-2
JUNCTION-174 76 0 PATTERN-2
JUNCTION-175 72 0 PATTERN-2
JUNCTION-176 72 0 PATTERN-2
JUNCTION-177 65 0 PATTERN-2
JUNCTION-178 60 14.56 PATTERN-2
JUNCTION-179 62 0 PATTERN-2
JUNCTION-180 61 57.66 PATTERN-2
JUNCTION-181 75 32 PATTERN-2
JUNCTION-182 67 0 PATTERN-2
JUNCTION-183 68 77.84 PATTERN-2
JUNCTION-184 70 69.72 PATTERN-2
JUNCTION-185 73 0 PATTERN-2
JUNCTION-186 75 0 PATTERN-2
JUNCTION-187 75 0 PATTERN-2
JUNCTION-188 84 48.1 PATTERN-2
JUNCTION-189 69 34.42 PATTERN-2
JUNCTION-190 77 0 PATTERN-2
JUNCTION-191 76 0 PATTERN-2
JUNCTION-192 77 34.1 PATTERN-2
JUNCTION-193 76 19.46 PATTERN-2
JUNCTION-194 76 0 PATTERN-2
JUNCTION-195 60 0 PATTERN-2
JUNCTION-196 60 0 PATTERN-2
JUNCTION-197 62 0 PATTERN-2
JUNCTION-198 41 0 PATTERN-2
JUNCTION-199 39 0 PATTERN-2
JUNCTION-200 28 139.02 PATTERN-2
JUNCTION-201 26 4.4 PATTERN-2
JUNCTION-202 20 0.34 PATTERN-2
JUNCTION-203 31 0 PATTERN-2
JUNCTION-204 38 4.3 PATTERN-2
JUNCTION-205 28 0 PATTERN-2
JUNCTION-206 26 8.54 PATTERN-2
JUNCTION-207 25 0 PATTERN-2
JUNCTION-208 20 0 PATTERN-2
JUNCTION-209 24 0 PATTERN-2
JUNCTION-210 25 19.3 PATTERN-2
JUNCTION-211 24 32.38 PATTERN-2
JUNCTION-212 24 0 PATTERN-2
JUNCTION-213 25 0 PATTERN-2
JUNCTION-214 29 18.92 PATTERN-2
JUNCTION-215 30 3.96 PATTERN-2
JUNCTION-216 26 17.32 PATTERN-2
JUNCTION-217 33 0 PATTERN-2
JUNCTION-218 34 0.64 PATTERN-2
JUNCTION-219 33 0 PATTERN-2
JUNCTION-220 50 0 PATTERN-2
JUNCTION-221 48 0 PATTERN-2
JUNCTION-222 50 0 PATTERN-2
JUNCTION-223 50 0 PATTERN-2
JUNCTION-224 50 0 PATTERN-2
JUNCTION-225 45 20.2 PATTERN-2
JUNCTION-226 40 0 PATTERN-2
JUNCTION-227 42 30.2 PATTERN-2
JUNCTION-228 58 0 PATTERN-2
JUNCTION-229 62 0 PATTERN-2
JUNCTION-230 63 8.56 PATTERN-2
JUNCTION-231 64 0 PATTERN-2
JUNCTION-232 56 0 PATTERN-2
JUNCTION-233 56 1.12 PATTERN-2
JUNCTION-234 55 20.66 PATTERN-2
JUNCTION-235 65 41.96 PATTERN-2
JUNCTION-236 60 47.72 PATTERN-2
JUNCTION-237 72 51.62 PATTERN-2
JUNCTION-238 70 0 PATTERN-2
JUNCTION-239 70 0 PATTERN-2
JUNCTION-240 105 0 PATTERN-2
JUNCTION-241 72 0 PATTERN-2
JUNCTION-242 105 16.64 PATTERN-2
JUNCTION-243 100 0 PATTERN-2
JUNCTION-244 75 0 PATTERN-2
JUNCTION-245 75 0 PATTERN-2
JUNCTION-246 79 0 PATTERN-2
JUNCTION-247 98 44.56 PATTERN-2
JUNCTION-248 78 14.9 PATTERN-2
JUNCTION-249 75 8.44 PATTERN-2
JUNCTION-250 81 0 PATTERN-2
JUNCTION-251 95 0 PATTERN-2
JUNCTION-252 98 24.12 PATTERN-2
JUNCTION-253 95 0 PATTERN-2
JUNCTION-254 95 0 PATTERN-2
JUNCTION-255 90 10 PATTERN-2
JUNCTION-256 95 0 PATTERN-2
JUNCTION-257 95 0 PATTERN-2
JUNCTION-258 95 0 PATTERN-2
JUNCTION-259 100 0 PATTERN-2
JUNCTION-260 98 0 PATTERN-2
JUNCTION-261 81 81.04 PATTERN-2
JUNCTION-262 75 29.58 PATTERN-2
JUNCTION-263 70 0 PATTERN-2
JUNCTION-264 70 15.5 PATTERN-2
JUNCTION-265 64 13.2 PATTERN-2
JUNCTION-266 67 49.24 PATTERN-2
JUNCTION-267 68 0 PATTERN-2
JUNCTION-268 60 11.32 PATTERN-2
JUNCTION-269 56 0 PATTERN-2
JUNCTION-270 56 0 PATTERN-2
JUNCTION-271 52 10.1 PATTERN-2
JUNCTION-272 61 12.68 PATTERN-2
JUNCTION-273 62 17.3 PATTERN-2
JUNCTION-274 65 0 PATTERN-2
JUNCTION-275 60 29.18 PATTERN-2
JUNCTION-276 69 42.56 PATTERN-2
JUNCTION-277 65 25.04 PATTERN-2
JUNCTION-278 68 0 PATTERN-2
JUNCTION-279 63 56.18 PATTERN-2
JUNCTION-280 63 38.1 PATTERN-2
JUNCTION-281 64 0 PATTERN-2
JUNCTION-282 65 0 PATTERN-2
JUNCTION-283 69 0 PATTERN-2
JUNCTION-284 68 76.06 PATTERN-2
JUNCTION-285 73 0 PATTERN-2
JUNCTION-286 72 0 PATTERN-2
JUNCTION-287 72 0 PATTERN-2
JUNCTION-288 74 49.6 PATTERN-2
JUNCTION-289 61 0 PATTERN-2
JUNCTION-290 40 0 PATTERN-2
JUNCTION-291 39 27.04 PATTERN-2
JUNCTION-292 35 38.14 PATTERN-2
JUNCTION-293 35 0 PATTERN-2
JUNCTION-294 30 0 PATTERN-2
JUNCTION-295 66 19.58 PATTERN-2
JUNCTION-296 65 0 PATTERN-2
JUNCTION-297 58 0 PATTERN-2
JUNCTION-298 45 0 PATTERN-2
JUNCTION-299 38 0 PATTERN-2
JUNCTION-300 60 0 PATTERN-2
JUNCTION-301 48 0 PATTERN-2
JUNCTION-302 32 65.36 PATTERN-2
JUNCTION-303 30 17.8 PATTERN-2
JUNCTION-304 48 0 PATTERN-2
JUNCTION-305 45 52.52 PATTERN-2
JUNCTION-306 39 0 PATTERN-2
JUNCTION-307 38 0 PATTERN-2
JUNCTION-308 35 68.98 PATTERN-2
JUNCTION-309 45 0 PATTERN-2
JUNCTION-310 45 0 PATTERN-2
JUNCTION-311 42 31.4 PATTERN-2
JUNCTION-312 52 0 PATTERN-2
JUNCTION-313 58 26.94 PATTERN-2
JUNCTION-314 56 24.64 PATTERN-2
JUNCTION-315 75 0 PATTERN-2
JUNCTION-316 88 0 PATTERN-2
JUNCTION-317 88 0 PATTERN-2
JUNCTION-318 85 44.14 PATTERN-2
JUNCTION-319 84 30.24 PATTERN-2
JUNCTION-320 83 0 PATTERN-2
JUNCTION-321 82 0 PATTERN-2
JUNCTION-322 75 0 PATTERN-2
JUNCTION-323 101 0 PATTERN-2
JUNCTION-324 100 24.66 PATTERN-2
JUNCTION-325 101 0 PATTERN-2
JUNCTION-326 99 0 PATTERN-2
JUNCTION-327 100 0 PATTERN-2
JUNCTION-328 95 0 PATTERN-2
JUNCTION-329 100 59.26 PATTERN-2
JUNCTION-330 97 0 PATTERN-2
JUNCTION-331 97 70.74 PATTERN-2
JUNCTION-332 100 30.02 PATTERN-2
JUNCTION-333 94 68.8 PATTERN-2
JUNCTION-334 82 46.56 PATTERN-2
JUNCTION-335 68 87.9 PATTERN-2
JUNCTION-336 72 0 PATTERN-2
JUNCTION-337 75 10.54 PATTERN-2
JUNCTION-338 67 0 PATTERN-2
JUNCTION-339 71 0 PATTERN-2
JUNCTION-340 71 43.46 PATTERN-2
JUNCTION-341 65 17.68 PATTERN-2
JUNCTION-342 40 96.16 PATTERN-2
JUNCTION-343 41 39.44 PATTERN-2
JUNCTION-344 35 90.4 PATTERN-2
JUNCTION-345 30 0 PATTERN-2
JUNCTION-346 30 51.32 PATTERN-2
JUNCTION-347 30 0 PATTERN-2
JUNCTION-348 29 0 PATTERN-2
JUNCTION-349 32 0 PATTERN-2
JUNCTION-350 32 27.26 PATTERN-2
JUNCTION-351 31 31.18 PATTERN-2
JUNCTION-352 32 54.92 PATTERN-2
JUNCTION-353 32 0 PATTERN-2
JUNCTION-354 30 0 PATTERN-2
JUNCTION-355 30 0 PATTERN-2
JUNCTION-356 30 0 PATTERN-2
JUNCTION-357 31 5.66 PATTERN-2
JUNCTION-358 30 80.6 PATTERN-2
JUNCTION-359 31 0 PATTERN-2
JUNCTION-360 30 25.98 PATTERN-2
JUNCTION-361 25 40.12 PATTERN-2
JUNCTION-362 25 0 PATTERN-2
JUNCTION-363 25 0 PATTERN-2
JUNCTION-364 25 0 PATTERN-2
JUNCTION-365 26 0 PATTERN-2
JUNCTION-366 27 14.1 PATTERN-2
JUNCTION-367 28 10.74 PATTERN-2
JUNCTION-368 29 35.18 PATTERN-2
JUNCTION-369 25 26.82 PATTERN-2
JUNCTION-370 27 0 PATTERN-2
JUNCTION-371 28 2.58 PATTERN-2
JUNCTION-372 35 0 PATTERN-2
JUNCTION-373 34 0 PATTERN-2
JUNCTION-374 65 23.32 PATTERN-2
JUNCTION-375 65 0 PATTERN-2
JUNCTION-376 30 28.38 PATTERN-2
JUNCTION-377 30 0 PATTERN-2
JUNCTION-378 31 0 PATTERN-2
JUNCTION-379 31 0 PATTERN-2
JUNCTION-380 32 16.48 PATTERN-2
JUNCTION-381 32 0 PATTERN-2
JUNCTION-382 32 0 PATTERN-2
JUNCTION-383 33 0 PATTERN-2
JUNCTION-384 32 0 PATTERN-2
JUNCTION-385 32 0 PATTERN-2
JUNCTION-386 33 0 PATTERN-2
JUNCTION-387 33 0 PATTERN-2
JUNCTION-388 33 0 PATTERN-2
JUNCTION-389 33 0 PATTERN-2
JUNCTION-390 34 0 PATTERN-2
JUNCTION-391 34 0 PATTERN-2
JUNCTION-392 34 7.58 PATTERN-2
JUNCTION-393 33 0 PATTERN-2
JUNCTION-394 34 0 PATTERN-2
JUNCTION-395 34 0 PATTERN-2
JUNCTION-396 34 0 PATTERN-2
JUNCTION-397 34 0 PATTERN-2
JUNCTION-398 34 0 PATTERN-2
JUNCTION-399 35 0 PATTERN-2
JUNCTION-400 35 0 PATTERN-2
JUNCTION-401 32 68.08 PATTERN-2
JUNCTION-402 31 0 PATTERN-2
JUNCTION-403 36 60.74 PATTERN-2
JUNCTION-404 40 6.4 PATTERN-2
JUNCTION-405 40 30.58 PATTERN-2
JUNCTION-406 42 0 PATTERN-2
JUNCTION-407 35 0 PATTERN-2
JUNCTION-408 40 0 PATTERN-2
JUNCTION-409 40 101.84 PATTERN-2
JUNCTION-410 40 0 PATTERN-2
JUNCTION-411 40 17.46 PATTERN-2
JUNCTION-412 50 33.56 PATTERN-2
JUNCTION-413 45 0 PATTERN-2
JUNCTION-414 43 37.44 PATTERN-2
JUNCTION-415 43 0 PATTERN-2
JUNCTION-416 41 0 PATTERN-2
JUNCTION-417 46 49.34 PATTERN-2
JUNCTION-418 58 84.6 PATTERN-2
JUNCTION-419 40 42.92 PATTERN-2
JUNCTION-420 44 19.34 PATTERN-2
JUNCTION-421 43 0 PATTERN-2
JUNCTION-422 42 2.3 PATTERN-2
JUNCTION-423 43 0 PATTERN-2
JUNCTION-424 44 20.3 PATTERN-2
JUNCTION-425 42 0 PATTERN-2
JUNCTION-426 44 0 PATTERN-2
JUNCTION-427 48 0 PATTERN-2
JUNCTION-428 58 0 PATTERN-2
JUNCTION-429 54 0 PATTERN-2
JUNCTION-430 60 25.18 PATTERN-2
JUNCTION-431 45 157 PATTERN-2
JUNCTION-432 60 54.02 PATTERN-2
JUNCTION-433 60 0 PATTERN-2
JUNCTION-434 60 0 PATTERN-2
JUNCTION-435 95 0 PATTERN-2
JUNCTION-436 101 0 PATTERN-2
JUNCTION-437 105 0 PATTERN-2
JUNCTION-438 140 0 PATTERN-2
JUNCTION-439 193 0 PATTERN-2
JUNCTION-440 105 0 PATTERN-2
JUNCTION-441 60 0 PATTERN-2
JUNCTION-442 62 0 PATTERN-2
JUNCTION-443 60 0 PATTERN-2
JUNCTION-444 52 0 PATTERN-2
JUNCTION-445 68 0 PATTERN-2
JUNCTION-446 75 42.84 PATTERN-2
JUNCTION-447 60 0 PATTERN-2
JUNCTION-448 52 0 PATTERN-2
JUNCTION-449 193 0 PATTERN-2
JUNCTION-450 59 0 PATTERN-2
JUNCTION-451 55 0 PATTERN-2
JUNCTION-452 52 0 PATTERN-2
JUNCTION-453 45 46.68 PATTERN-2
JUNCTION-454 44 0 PATTERN-2
JUNCTION-455 40 27.08 PATTERN-2
JUNCTION-456 45 0 PATTERN-2
JUNCTION-457 45 0 PATTERN-2
JUNCTION-458 43 62.44 PATTERN-2
JUNCTION-459 40 116.88 PATTERN-2
JUNCTION-460 47 0 PATTERN-2
JUNCTION-461 45 99.16 PATTERN-2
JUNCTION-462 48 39.42 PATTERN-2
JUNCTION-463 46 0 PATTERN-2
JUNCTION-464 45 3.14 PATTERN-2
JUNCTION-465 48 0 PATTERN-2
JUNCTION-466 50 27.28 PATTERN-2
JUNCTION-467 50 0 PATTERN-2
JUNCTION-468 52 110.8 PATTERN-2
JUNCTION-469 50 0 PATTERN-2
JUNCTION-470 58 64.92 PATTERN-2
JUNCTION-471 51 16.32 PATTERN-2
JUNCTION-472 50 0 PATTERN-2
JUNCTION-473 55 33.92 PATTERN-2
JUNCTION-474 56 0 PATTERN-2
JUNCTION-475 55 0 PATTERN-2
JUNCTION-476 63 0 PATTERN-2
JUNCTION-477 62 0 PATTERN-2
JUNCTION-478 60 17.3 PATTERN-2
JUNCTION-479 70 0 PATTERN-2
JUNCTION-480 70 53.94 PATTERN-2
JUNCTION-481 100 1.14 PATTERN-2
JUNCTION-482 65 38.32 PATTERN-2
JUNCTION-483 68 0 PATTERN-2
JUNCTION-484 69 0 PATTERN-2
JUNCTION-485 72 61.72 PATTERN-2
JUNCTION-486 65 0 PATTERN-2
JUNCTION-487 56 0 PATTERN-2
JUNCTION-488 55 0 PATTERN-2
JUNCTION-489 57 17.92 PATTERN-2
JUNCTION-490 55 18.2 PATTERN-2
JUNCTION-491 52 33.22 PATTERN-2
JUNCTION-492 49 17.64 PATTERN-2
JUNCTION-493 48 0 PATTERN-2
JUNCTION-494 48 0 PATTERN-2
JUNCTION-495 48 0 PATTERN-2
JUNCTION-496 47 65.22 PATTERN-2
JUNCTION-497 49 0 PATTERN-2
JUNCTION-498 52 36.66 PATTERN-2
JUNCTION-499 55 0 PATTERN-2
JUNCTION-500 52 0 PATTERN-2
JUNCTION-501 54 0 PATTERN-2
JUNCTION-502 60 84.68 PATTERN-2
JUNCTION-503 57 0 PATTERN-2
JUNCTION-504 48 0 PATTERN-2
JUNCTION-505 47 39 PATTERN-2
JUNCTION-506 46 0 PATTERN-2
JUNCTION-507 45 0 PATTERN-2
JUNCTION-508 43 0 PATTERN-2
JUNCTION-509 43 62.2 PATTERN-2
JUNCTION-510 53 84.02 PATTERN-2
JUNCTION-511 49 15.34 PATTERN-2
JUNCTION-512 54 0 PATTERN-2
JUNCTION-513 55 69.18 PATTERN-2
JUNCTION-514 54 0 PATTERN-2
JUNCTION-515 53 0 PATTERN-2
JUNCTION-516 50 0 PATTERN-2
JUNCTION-517 50 53.68 PATTERN-2
JUNCTION-518 50 0 PATTERN-2
JUNCTION-519 55 91.06 PATTERN-2
JUNCTION-520 55 0 PATTERN-2
JUNCTION-521 50 53.88 PATTERN-2
JUNCTION-522 49 0 PATTERN-2
JUNCTION-523 51 23.02 PATTERN-2
JUNCTION-524 50 42.74 PATTERN-2
JUNCTION-525 54 0 PATTERN-2
JUNCTION-526 54 0 PATTERN-2
JUNCTION-527 59 0 PATTERN-2
JUNCTION-528 53 15.38 PATTERN-2
JUNCTION-529 68 0 PATTERN-2
JUNCTION-530 68 0 PATTERN-2
JUNCTION-531 67 16.18 PATTERN-2
JUNCTION-532 71 0 PATTERN-2
JUNCTION-533 72 0 PATTERN-2
JUNCTION-534 75 30.34 PATTERN-2
JUNCTION-535 75 0 PATTERN-2
JUNCTION-536 75 0 PATTERN-2
JUNCTION-537 78 18.46 PATTERN-2
JUNCTION-538 74 44.06 PATTERN-2
JUNCTION-539 71 0 PATTERN-2
JUNCTION-540 66 33.58 PATTERN-2
JUNCTION-541 67 0 PATTERN-2
JUNCTION-542 73 0 PATTERN-2
JUNCTION-543 70 51.42 PATTERN-2
JUNCTION-544 78 0 PATTERN-2
JUNCTION-545 78 0 PATTERN-2
JUNCTION-546 82 0 PATTERN-2
JUNCTION-547 81 0 PATTERN-2
JUNCTION-548 80 23.94 PATTERN-2
JUNCTION-549 82 22.26 PATTERN-2
JUNCTION-550 86 0 PATTERN-2
JUNCTION-551 82 0 PATTERN-2
JUNCTION-552 85 0 PATTERN-2
JUNCTION-553 86 0 PATTERN-2
JUNCTION-554 86 0 PATTERN-2
JUNCTION-555 85 45.38 PATTERN-2
JUNCTION-556 86 0 PATTERN-2
JUNCTION-557 86 0 PATTERN-2
JUNCTION-558 87 0 PATTERN-2
JUNCTION-559 74 0 PATTERN-2
JUNCTION-560 81 76.24 PATTERN-2
JUNCTION-561 85 37.1 PATTERN-2
JUNCTION-562 92 16.98 PATTERN-2
JUNCTION-563 88 0 PATTERN-2
JUNCTION-564 90 0 PATTERN-2
JUNCTION-565 91 15.3 PATTERN-2
JUNCTION-566 90 0 PATTERN-2
JUNCTION-567 90 0 PATTERN-2
JUNCTION-568 96 20.58 PATTERN-2
JUNCTION-569 95 0 PATTERN-2
JUNCTION-570 91 0 PATTERN-2
JUNCTION-571 94 19.66 PATTERN-2
JUNCTION-572 96 0 PATTERN-2
JUNCTION-573 94 0 PATTERN-2
JUNCTION-574 94 10.78 PATTERN-2
JUNCTION-575 94 0 PATTERN-2
JUNCTION-576 99 0 PATTERN-2
JUNCTION-577 100 15.64 PATTERN-2
JUNCTION-578 72 0 PATTERN-2
JUNCTION-579 75 0 PATTERN-2
JUNCTION-580 98 0 PATTERN-2
JUNCTION-581 98 0 PATTERN-2
JUNCTION-582 97 0 PATTERN-2
JUNCTION-583 97 17.84 PATTERN-2
JUNCTION-584 90 0 PATTERN-2
JUNCTION-585 83 21.88 PATTERN-2
JUNCTION-586 83 7.66 PATTERN-2
JUNCTION-587 83 0 PATTERN-2
JUNCTION-588 82 0 PATTERN-2
JUNCTION-589 80 3.36 PATTERN-2
JUNCTION-590 80 1.28 PATTERN-2
JUNCTION-591 60 50.06 PATTERN-2
JUNCTION-592 67 59.08 PATTERN-2
JUNCTION-593 63 68.76 PATTERN-2
JUNCTION-594 71 19.82 PATTERN-2
JUNCTION-595 72 0 PATTERN-2
JUNCTION-596 72 0 PATTERN-2
JUNCTION-597 72 0 PATTERN-2
JUNCTION-598 72 31.2 PATTERN-2
JUNCTION-599 68 0 PATTERN-2
JUNCTION-600 68 0 PATTERN-2
JUNCTION-601 68 24.56 PATTERN-2
JUNCTION-602 65 0 PATTERN-2
JUNCTION-603 64 0 PATTERN-2
JUNCTION-604 64 60.12 PATTERN-2
JUNCTION-605 73 37.46 PATTERN-2
JUNCTION-606 74 0 PATTERN-2
JUNCTION-607 73 16.18 PATTERN-2
JUNCTION-608 78 26.2 PATTERN-2
JUNCTION-609 73 19.88 PATTERN-2
JUNCTION-610 75 0 PATTERN-2
JUNCTION-611 79 0 PATTERN-2
JUNCTION-612 78 19 PATTERN-2
JUNCTION-613 80 0 PATTERN-2
JUNCTION-614 82 25.32 PATTERN-2
JUNCTION-615 80 0 PATTERN-2
JUNCTION-616 81 0 PATTERN-2
JUNCTION-617 78 0 PATTERN-2
JUNCTION-618 72 0 PATTERN-2
JUNCTION-619 74 0 PATTERN-2
JUNCTION-620 77 0 PATTERN-2
JUNCTION-621 77 9.9 PATTERN-2
JUNCTION-622 78 0 PATTERN-2
JUNCTION-623 68 0 PATTERN-2
JUNCTION-624 68 0 PATTERN-2
JUNCTION-625 68 0 PATTERN-2
JUNCTION-626 63 0 PATTERN-2
JUNCTION-627 69 48.8 PATTERN-2
JUNCTION-628 65 26.8 PATTERN-2
JUNCTION-629 62 26.36 PATTERN-2
JUNCTION-630 84 0.08 PATTERN-2
JUNCTION-631 82 44.44 PATTERN-2
JUNCTION-632 90 21.3 PATTERN-2
JUNCTION-633 98 28.24 PATTERN-2
JUNCTION-634 98 5.48 PATTERN-2
JUNCTION-635 95 0 PATTERN-2
JUNCTION-636 95 0 PATTERN-2
JUNCTION-637 99 0 PATTERN-2
JUNCTION-638 100 21.78 PATTERN-2
JUNCTION-639 98 0 PATTERN-2
JUNCTION-640 98 0 PATTERN-2
JUNCTION-641 91 20.32 PATTERN-2
JUNCTION-642 87 0 PATTERN-2
JUNCTION-643 83 0 PATTERN-2
JUNCTION-644 85 21.26 PATTERN-2
JUNCTION-645 86 0 PATTERN-2
JUNCTION-646 87 21.28 PATTERN-2
JUNCTION-647 84 16.44 PATTERN-2
JUNCTION-648 90 0 PATTERN-2
JUNCTION-649 91 21.04 PATTERN-2
JUNCTION-650 77 16.68 PATTERN-2
JUNCTION-651 80 0 PATTERN-2
JUNCTION-652 82 16.56 PATTERN-2
JUNCTION-653 84 24.2 PATTERN-2
JUNCTION-654 80 11.14 PATTERN-2
JUNCTION-655 79 29.54 PATTERN-2
JUNCTION-656 78 10.86 PATTERN-2
JUNCTION-657 77 0 PATTERN-2
JUNCTION-658 79 30.4 PATTERN-2
JUNCTION-659 78 0 PATTERN-2
JUNCTION-660 84 0 PATTERN-2
JUNCTION-661 78 0 PATTERN-2
JUNCTION-662 89 0 PATTERN-2
JUNCTION-663 90 29.08 PATTERN-2
JUNCTION-664 97 0 PATTERN-2
JUNCTION-665 97 0 PATTERN-2
JUNCTION-666 97 9.62 PATTERN-2
JUNCTION-667 97 0 PATTERN-2
JUNCTION-668 97 0 PATTERN-2
JUNCTION-669 97 18.62 PATTERN-2
JUNCTION-670 72 0 PATTERN-2
JUNCTION-671 73 27 PATTERN-2
JUNCTION-672 75 33.94 PATTERN-2
JUNCTION-673 75 0 PATTERN-2
JUNCTION-674 80 0 PATTERN-2
JUNCTION-675 84 5.52 PATTERN-2
JUNCTION-676 81 79.08 PATTERN-2
JUNCTION-677 85 0 PATTERN-2
JUNCTION-678 85 0 PATTERN-2
JUNCTION-679 88 0 PATTERN-2
JUNCTION-680 82 0 PATTERN-2
JUNCTION-681 84 35.38 PATTERN-2
JUNCTION-682 83 0 PATTERN-2
JUNCTION-683 81 0 PATTERN-2
JUNCTION-684 82 22.38 PATTERN-2
JUNCTION-685 83 26.74 PATTERN-2
JUNCTION-686 75 24.78 PATTERN-2
JUNCTION-687 75 7.56 PATTERN-2
JUNCTION-688 73 16.12 PATTERN-2
JUNCTION-689 72 0 PATTERN-2
JUNCTION-690 70 0 PATTERN-2
JUNCTION-691 65 0 PATTERN-2
JUNCTION-692 65 0 PATTERN-2
JUNCTION-693 63 0 PATTERN-2
JUNCTION-694 64 45.14 PATTERN-2
JUNCTION-695 63 56.78 PATTERN-2
JUNCTION-696 60 0 PATTERN-2
JUNCTION-697 60 0 PATTERN-2
JUNCTION-698 59 44.8 PATTERN-2
JUNCTION-699 60 0 PATTERN-2
JUNCTION-700 62 0 PATTERN-2
JUNCTION-701 57 0 PATTERN-2
JUNCTION-702 78 0 PATTERN-2
JUNCTION-703 75 0 PATTERN-2
JUNCTION-704 75 13.48 PATTERN-2
JUNCTION-705 74 0 PATTERN-2
JUNCTION-706 73 0 PATTERN-2
JUNCTION-707 70 13.98 PATTERN-2
JUNCTION-708 67 0 PATTERN-2
JUNCTION-709 68 13.34 PATTERN-2
JUNCTION-710 70 0 PATTERN-2
JUNCTION-711 73 2.48 PATTERN-2
JUNCTION-712 69 17.02 PATTERN-2
JUNCTION-713 67 0 PATTERN-2
JUNCTION-714 64 31.98 PATTERN-2
JUNCTION-715 65 0 PATTERN-2
JUNCTION-716 64 0 PATTERN-2
JUNCTION-717 64 0 PATTERN-2
JUNCTION-718 62 0 PATTERN-2
JUNCTION-719 86 0 PATTERN-2
JUNCTION-720 85 22.76 PATTERN-2
JUNCTION-721 86 0 PATTERN-2
JUNCTION-722 122 0 PATTERN-2
JUNCTION-723 118 0 PATTERN-2
JUNCTION-724 180 0 PATTERN-2
JUNCTION-725 180 0 PATTERN-2
JUNCTION-726 100 0 PATTERN-2
JUNCTION-727 95 13.16 PATTERN-2
JUNCTION-728 88 30.82 PATTERN-2
JUNCTION-729 91 0 PATTERN-2
JUNCTION-730 91 28.32 PATTERN-2
JUNCTION-731 93 0 PATTERN-2
JUNCTION-732 95 18.28 PATTERN-2
JUNCTION-733 97 29.9 PATTERN-2
JUNCTION-734 93 0 PATTERN-2
JUNCTION-735 86 0 PATTERN-2
JUNCTION-736 88 30.62 PATTERN-2
JUNCTION-737 86 0 PATTERN-2
JUNCTION-738 92 0 PATTERN-2
JUNCTION-739 93 59.42 PATTERN-2
JUNCTION-740 91 0 PATTERN-2
JUNCTION-741 95 0 PATTERN-2
JUNCTION-742 95 18.34 PATTERN-2
JUNCTION-743 91 27.88 PATTERN-2
JUNCTION-744 91 0 PATTERN-2
JUNCTION-745 91 0 PATTERN-2
JUNCTION-746 98 0 PATTERN-2
JUNCTION-747 120 0 PATTERN-2
JUNCTION-748 89 43.38 PATTERN-2
JUNCTION-749 92 0 PATTERN-2
JUNCTION-750 93 0 PATTERN-2
JUNCTION-751 93 26.7 PATTERN-2
JUNCTION-752 105 0 PATTERN-2
JUNCTION-753 67 0 PATTERN-2
JUNCTION-754 67 0 PATTERN-2
JUNCTION-755 95 0 PATTERN-2
JUNCTION-756 93 0 PATTERN-2
JUNCTION-757 93 0 PATTERN-2
JUNCTION-758 90 25.38 PATTERN-2
JUNCTION-759 92 24.66 PATTERN-2
JUNCTION-760 93 52.28 PATTERN-2
JUNCTION-761 89 0 PATTERN-2
JUNCTION-762 106 16.2 PATTERN-2
JUNCTION-763 85 14.02 PATTERN-2
JUNCTION-764 91 0 PATTERN-2
JUNCTION-765 91 0 PATTERN-2
JUNCTION-766 91 0 PATTERN-2
JUNCTION-767 95 0 PATTERN-2
JUNCTION-768 95 0 PATTERN-2
JUNCTION-769 95 37.52 PATTERN-2
JUNCTION-770 96 0 PATTERN-2
JUNCTION-771 97 0 PATTERN-2
JUNCTION-772 97 26.64 PATTERN-2
JUNCTION-773 100 14.14 PATTERN-2
JUNCTION-774 95 31.16 PATTERN-2
JUNCTION-775 95 24.52 PATTERN-2
JUNCTION-776 94 0 PATTERN-2
JUNCTION-777 99 0 PATTERN-2
JUNCTION-778 100 38.74 PATTERN-2
JUNCTION-779 100 0 PATTERN-2
JUNCTION-780 102 20.78 PATTERN-2
JUNCTION-781 102 0 PATTERN-2
JUNCTION-782 104 0 PATTERN-2
JUNCTION-783 104 0 PATTERN-2
JUNCTION-784 104 0 PATTERN-2
JUNCTION-785 105 33.94 PATTERN-2
JUNCTION-786 110 33.98 PATTERN-2
JUNCTION-787 87 0 PATTERN-2
JUNCTION-788 88 0 PATTERN-2
JUNCTION-789 88 0 PATTERN-2
JUNCTION-790 89 0.04 PATTERN-2
JUNCTION-791 85 0 PATTERN-2
JUNCTION-792 84 8.96 PATTERN-2
JUNCTION-793 85 0 PATTERN-2
JUNCTION-794 90 0 PATTERN-2
JUNCTION-795 87 0 PATTERN-2
JUNCTION-796 84 0 PATTERN-2
JUNCTION-797 84 0 PATTERN-2
JUNCTION-798 82 7.04 PATTERN-2
JUNCTION-799 90 0 PATTERN-2
JUNCTION-800 95 0 PATTERN-2
JUNCTION-801 105 35.62 PATTERN-2
JUNCTION-802 100 0 PATTERN-2
JUNCTION-803 95 0 PATTERN-2
JUNCTION-804 97 0 PATTERN-2
JUNCTION-805 85 0 PATTERN-2
JUNCTION-806 95 0 PATTERN-2
JUNCTION-807 105 119.02 PATTERN-2
JUNCTION-808 33 0 PATTERN-2
JUNCTION-809 32 0 PATTERN-2
JUNCTION-810 32 17.48 PATTERN-2
JUNCTION-811 33 0 PATTERN-2
JUNCTION-812 34 66 PATTERN-2
JUNCTION-813 33 0 PATTERN-2
JUNCTION-814 35 0 PATTERN-2
JUNCTION-815 34 7.48 PATTERN-2
JUNCTION-816 35 0 PATTERN-2
JUNCTION-817 34 66.76 PATTERN-2
JUNCTION-818 35 0 PATTERN-2
JUNCTION-819 35 0 PATTERN-2
JUNCTION-820 35 28.54 PATTERN-2
JUNCTION-821 35 0 PATTERN-2
JUNCTION-822 35 0 PATTERN-2
JUNCTION-823 35 26.42 PATTERN-2
JUNCTION-824 35 0 PATTERN-2
JUNCTION-825 33 0 PATTERN-2
JUNCTION-826 32 0 PATTERN-2
JUNCTION-827 31 0 PATTERN-2
JUNCTION-828 29 22.4 PATTERN-2
JUNCTION-829 30 58.96 PATTERN-2
JUNCTION-830 28 0 PATTERN-2
JUNCTION-831 35 0 PATTERN-2
JUNCTION-832 31 73.5 PATTERN-2
JUNCTION-833 32 49.82 PATTERN-2
JUNCTION-834 30 0 PATTERN-2
JUNCTION-835 29 0 PATTERN-2
JUNCTION-836 27 0 PATTERN-2
JUNCTION-837 27 0 PATTERN-2
JUNCTION-838 50 0 PATTERN-2
JUNCTION-839 50 0 PATTERN-2
JUNCTION-840 50 0 PATTERN-2
JUNCTION-841 50 0 PATTERN-2
JUNCTION-842 49 0 PATTERN-2
JUNCTION-843 48 22.96 PATTERN-2
JUNCTION-844 50 0 PATTERN-2
JUNCTION-845 48 15.62 PATTERN-2
JUNCTION-846 45 28.94 PATTERN-2
JUNCTION-847 45 0 PATTERN-2
JUNCTION-848 47 0 PATTERN-2
JUNCTION-849 48 0 PATTERN-2
JUNCTION-850 45 0 PATTERN-2
JUNCTION-851 45 0 PATTERN-2
JUNCTION-852 50 29.1 PATTERN-2
JUNCTION-853 44 18.56 PATTERN-2
JUNCTION-854 44 14.44 PATTERN-2
JUNCTION-855 45 75.84 PATTERN-2
JUNCTION-856 45 55.18 PATTERN-2
JUNCTION-857 40 0 PATTERN-2
JUNCTION-858 40 0 PATTERN-2
JUNCTION-859 40 16.58 PATTERN-2
JUNCTION-860 40 33.7 PATTERN-2
JUNCTION-861 40 51.1 PATTERN-2
JUNCTION-862 42 0 PATTERN-2
JUNCTION-863 42 0 PATTERN-2
JUNCTION-864 40 0 PATTERN-2
JUNCTION-865 40 0 PATTERN-2
JUNCTION-866 42 0 PATTERN-2
JUNCTION-867 35 66.46 PATTERN-2
JUNCTION-868 33 0 PATTERN-2
JUNCTION-869 32 37.6 PATTERN-2
JUNCTION-870 31 0 PATTERN-2
JUNCTION-871 29 65.56 PATTERN-2
JUNCTION-872 21 0 PATTERN-2
JUNCTION-873 35 24.9 PATTERN-2
JUNCTION-874 60 34.88 PATTERN-2
JUNCTION-875 27 0 PATTERN-2
JUNCTION-876 34 0 PATTERN-2
JUNCTION-877 34 22.52 PATTERN-2
JUNCTION-878 35 0 PATTERN-2
JUNCTION-879 35 0 PATTERN-2
JUNCTION-880 35 16.12 PATTERN-2
JUNCTION-881 37 5.84 PATTERN-2
JUNCTION-882 37 0 PATTERN-2
JUNCTION-883 38 13.08 PATTERN-2
JUNCTION-884 38 0 PATTERN-2
JUNCTION-885 37 0 PATTERN-2
JUNCTION-886 38 0 PATTERN-2
JUNCTION-887 37 34.68 PATTERN-2
JUNCTION-888 39 94.26 PATTERN-2
JUNCTION-889 42 99.64 PATTERN-2
JUNCTION-890 39 0 PATTERN-2
JUNCTION-891 39 0 PATTERN-2
JUNCTION-892 40 0 PATTERN-2
JUNCTION-893 38 0 PATTERN-2
JUNCTION-894 38 28.3 PATTERN-2
JUNCTION-895 50 0 PATTERN-2
JUNCTION-896 50 66.82 PATTERN-2
JUNCTION-897 35 44.42 PATTERN-2
JUNCTION-898 40 9.82 PATTERN-2
JUNCTION-899 38 24.82 PATTERN-2
JUNCTION-900 70 0 PATTERN-2
JUNCTION-901 92 14.58 PATTERN-2
JUNCTION-902 70 0 PATTERN-2
JUNCTION-903 75 0 PATTERN-2
JUNCTION-904 80 0 PATTERN-2
JUNCTION-905 50 15.2 PATTERN-2
JUNCTION-906 120 0 PATTERN-2
JUNCTION-907 125 0 PATTERN-2
JUNCTION-908 75 0 PATTERN-2
JUNCTION-909 85 0 PATTERN-2
JUNCTION-910 95 15.26 PATTERN-2
JUNCTION-911 130 0 PATTERN-2
JUNCTION-912 90 0 PATTERN-2
JUNCTION-913 100 8.6 PATTERN-2
JUNCTION-914 120 9.52 PATTERN-2
JUNCTION-915 110 0 PATTERN-2
JUNCTION-916 95 38.8 PATTERN-2
JUNCTION-917 66 0 PATTERN-2
JUNCTION-918 82 0 PATTERN-2
JUNCTION-919 80 0 PATTERN-2
JUNCTION-920 65 49.22 PATTERN-2
JUNCTION-921 50 0 PATTERN-2
JUNCTION-922 65 12.9 PATTERN-2
JUNCTION-923 60 0 PATTERN-2
JUNCTION-924 31 0 PATTERN-2
JUNCTION-925 30 12.28 PATTERN-2
JUNCTION-926 62 21.74 PATTERN-2
JUNCTION-927 50 0 PATTERN-2
JUNCTION-928 50 27.78 PATTERN-2
JUNCTION-929 50 14.58 PATTERN-2
JUNCTION-930 62 19.74 PATTERN-2
JUNCTION-931 60 0 PATTERN-2
JUNCTION-932 78 0 PATTERN-2
JUNCTION-933 160 0 PATTERN-2
JUNCTION-934 80 0 PATTERN-2
JUNCTION-935 160 0 PATTERN-2
JUNCTION-936 75 0 PATTERN-2
JUNCTION-937 45 42.88 PATTERN-2
JUNCTION-938 41 0 PATTERN-2
JUNCTION-939 35 25.02 PATTERN-2
JUNCTION-940 35 26.5 PATTERN-2
JUNCTION-941 43 0 PATTERN-2
JUNCTION-942 42 51.28 PATTERN-2