; Filename: networks/Net3.inp
; WNTR: 0.1
; Created: 2016-12-19 15:47:25
[TITLE]
EPANET Example Network 3, updated to include longer duration
Example showing how the percent of Lake water in a dual-source
system changes over time.

[JUNCTIONS]
;ID                      Elevation       Demand Pattern                 
 10                            147            0                            ;
 101                            42       189.95                            ;
 103                            43        133.2                            ;
 105                          28.5       135.37                            ;
 107                            22        54.64                            ;
 109                          20.3        231.4                            ;
 111                            10       141.94                            ;
 113                             2        20.01                            ;
 115                            14         52.1                            ;
 117                          13.6       117.71                            ;
 119                             2       176.13                            ;
 120                             0            0                            ;
 121                      -1.67192      47.8745                            ;
 123                            11            1 2                          ;
 125                            11         45.6                            ;
 127                            56        17.66                            ;
 129                            51            0                            ;
 131                             6        42.75                            ;
 139                            31         5.89                            ;
 141                             4         9.85                            ;
 143                          -4.5          6.2                            ;
 145                             1        27.63                            ;
 147                          18.5         8.55                            ;
 149                            16        27.07                            ;
 15                             32            1 3                          ;
 151                          33.5       144.48                            ;
 153                          66.2        44.17                            ;
 157                          13.1        51.79                            ;
 159                             6        41.32                            ;
 161                             4         15.8                            ;
 163                             5         9.42                            ;
 164                             5            0                            ;
 166                            -2          2.6                            ;
 167                            -5        14.56                            ;
 169                            -5            0                            ;
 171                            -4        39.34                            ;
 173                            -4            0                            ;
 177                             8        58.17                            ;
 179                             8            0                            ;
 181                             8            0                            ;
 183                            11            0                            ;
 184                            16            0                            ;
 185                            16        25.65                            ;
 187                          12.5            0                            ;
 189                             4       107.92                            ;
 191                            25         81.9                            ;
 193                            18        71.31                            ;
 195                          15.5            0                            ;
 197                            23        17.04                            ;
 199                            -2       119.32                            ;
 20                            129            0                            ;
 201                           0.1        44.61                            ;
 203                             2            1 5                          ;
 204                            21            0                            ;
 205                            21        65.36                            ;
 206                             1            0                            ;
 207                             9        69.39                            ;
 208                            16            0                            ;
 209                            -2         0.87                            ;
 211                             7         8.67                            ;
 213                             7        13.94                            ;
 215                             7        92.19                            ;
 217                             6        24.22                            ;
 219                             4        41.32                            ;
 225                             8         22.8                            ;
 229                          10.5        64.18                            ;
 231                             5        16.48                            ;
 237                            14        15.61                            ;
 239                            13        44.61                            ;
 241                            13            0                            ;
 243                            14         4.34                            ;
 247                            18        70.38                            ;
 249                            18            0                            ;
 251                            30        24.16                            ;
 253                            36        54.52                            ;
 255                            27        40.39                            ;
 257                            17            0                            ;
 259                            25            0                            ;
 261                             0            0                            ;
 263                             0            0                            ;
 265                             0            0                            ;
 267                            21            0                            ;
 269                             0            0                            ;
 271                             6            0                            ;
 273                             8            0                            ;
 275                            10            0                            ;
 35                           12.5            1 4                          ;
 40                          131.9            0                            ;
 50                          116.5            0                            ;
 60                              0            0                            ;
 601                             0            0                            ;
 61                              0            0                            ;
 new_junction              32.8084       158503 1                          ;

[RESERVOIRS]
;ID                           Head                  Pattern
 Lake                          167                            ;
 River                         198                            ;

[TANKS]
;ID                      Elevation   Init Level    Min Level    Max Level     Diameter   Min Volume Volume Curve        
 1                           131.9         13.1          0.1         32.1         93.5            0                        ;
 2                           116.5         23.5          6.5         40.3           50            0                        ;
 3                             129           29            4        39.05          164            0                        ;

[PIPES]
;ID                   Node1                Node2                      Length     Diameter    Roughness   Minor Loss               Status
 101                  10                   101                         14200           18          110            0                 Open   ;
 103                  101                  103                          1350           16          130            0                 Open   ;
 105                  101                  105                          2540           12          130            0                 Open   ;
 107                  105                  107                          1470           12          130            0                 Open   ;
 109                  103                  109                          3940           16          130            0                 Open   ;
 111                  109                  111                          2000           12          130            0                 Open   ;
 112                  115                  111                          1160           12          130            0                 Open   ;
 113                  111                  113                          1680           12          130            0                 Open   ;
 114                  115                  113                          2000            8          130            0                 Open   ;
 115                  107                  115                          1950            8          130            0                 Open   ;
 116                  113                  193                          1660           12          130            0                 Open   ;
 117                  263                  105                          2725           12          130            0                 Open   ;
 119                  115                  117                          2180           12          130            0                 Open   ;
 120                  119                  120                           730           12          130            0                 Open   ;
 121                  120                  117                          1870           12          130            0                 Open   ;
 122                  121                  120                          2050            4          130            0                 Open   ;
 123                  121                  119                          2000           30          141            0                 Open   ;
 125                  123                  121                          1500           30          141            0                 Open   ;
 129                  121                  125                           930           24          130            0                 Open   ;
 131                  125                  127                          3240           24          130            0                 Open   ;
 133                  20                   127                           785           20          130            0                 Open   ;
 135                  127                  129                           900           24          130            0                 Open   ;
 137                  129                  131                          6480           16          130            0                 Open   ;
 145                  129                  139                          2750            8          130            0                 Open   ;
 147                  139                  141                          2050            8          130            0                 Open   ;
 149                  143                  141                          1400            8          130            0                 Open   ;
 151                  15                   143                          1650            8          130            0                 Open   ;
 155                  147                  145                          2200           12          130            0                 Open   ;
 159                  147                  149                           880           12          130            0                 Open   ;
 161                  149                  151                          1020            8          130            0                 Open   ;
 163                  151                  153                          1170           12          130            0                 Open   ;
 169                  125                  153                          4560            8          130            0                 Open   ;
 171                  119                  151                          3460           12          130            0                 Open   ;
 173                  119                  157                          2080           30          141            0                 Open   ;
 175                  157                  159                          2910           30          141            0                 Open   ;
 177                  159                  161                          2000           30          141            0                 Open   ;
 179                  161                  163                           430           30          141            0                 Open   ;
 180                  163                  164                           150           14          130            0                 Open   ;
 181                  164                  166                           490           14          130            0                 Open   ;
 183                  265                  169                           590           30          141            0                 Open   ;
 185                  167                  169                            60            8          130            0                 Open   ;
 186                  187                  204                          99.9            8          130            0                 Open   ;
 187                  169                  171                          1270           30          141            0                 Open   ;
 189                  171                  173                            50           30          141            0                 Open   ;
 191                  271                  171                           760           24          130            0                 Open   ;
 193                  35                   181                            30           24          130            0                 Open   ;
 195                  181                  177                            30           12          130            0                 Open   ;
 197                  177                  179                            30           12          130            0                 Open   ;
 199                  179                  183                           210           12          130            0                 Open   ;
 20                   3                    20                             99           99          199            0                 Open   ;
 201                  40                   179                          1190           12          130            0                 Open   ;
 202                  185                  184                          99.9            8          130            0                 Open   ;
 203                  183                  185                           510            8          130            0                 Open   ;
 204                  184                  205                          4530           12          130            0                 Open   ;
 205                  204                  185                          1325           12          130            0                 Open   ;
 207                  189                  183                          1350           12          130            0                 Open   ;
 209                  189                  187                           500            8          130            0                 Open   ;
 211                  169                  269                           646           12          130            0                 Open   ;
 213                  191                  187                          2560           12          130            0                 Open   ;
 215                  267                  189                          1230           12          130            0                 Open   ;
 217                  191                  193                           520           12          130            0                 Open   ;
 219                  193                  195                           360           12          130            0                 Open   ;
 221                  161                  195                          2300            8          130            0                 Open   ;
 223                  197                  191                          1150           12          130            0                 Open   ;
 225                  111                  197                          2790           12          130            0                 Open   ;
 229                  173                  199                          4000           24          141            0                 Open   ;
 231                  199                  201                           630           24          141            0                 Open   ;
 233                  201                  203                           120           24          130            0                 Open   ;
 235                  199                  273                           725           12          130            0                 Open   ;
 237                  205                  207                          1200           12          130            0                 Open   ;
 238                  207                  206                           450           12          130            0                 Open   ;
 239                  275                  207                          1430           12          130            0                 Open   ;
 240                  206                  208                           510           12          130            0                 Open   ;
 241                  208                  209                           885           12          130            0                 Open   ;
 243                  209                  211                          1210           16          130            0                 Open   ;
 245                  211                  213                           990           16          130            0                 Open   ;
 247                  213                  215                          4285           16          130            0                 Open   ;
 249                  215                  217                          1660           16          130            0                 Open   ;
 251                  217                  219                          2050           14          130            0                 Open   ;
 257                  217                  225                          1560           12          130            0                 Open   ;
 261                  213                  229                          2200            8          130            0                 Open   ;
 263                  229                  231                          1960           12          130            0                 Open   ;
 269                  211                  237                          2080           12          130            0                 Open   ;
 271                  237                  229                           790            8          130            0                 Open   ;
 273                  237                  239                           510           12          130            0                 Open   ;
 275                  239                  241                            35           12          130            0                 Open   ;
 277                  241                  243                          2200           12          130            0                 Open   ;
 281                  241                  247                           445           10          130            0                 Open   ;
 283                  239                  249                           430           12          130            0                 Open   ;
 285                  247                  249                            10           12          130            0                 Open   ;
 287                  247                  255                          1390           10          130            0                 Open   ;
 289                  50                   255                           925           10          130            0                 Open   ;
 291                  255                  253                          1100           10          130            0                 Open   ;
 293                  255                  251                          1100            8          130            0                 Open   ;
 295                  249                  251                          1450           12          130            0                 Open   ;
 297                  120                  257                           645            8          130            0                 Open   ;
 299                  257                  259                           350            8          130            0                 Open   ;
 301                  259                  263                          1400            8          130            0                 Open   ;
 303                  257                  261                          1400            8          130            0                 Open   ;
 305                  117                  261                           645           12          130            0                 Open   ;
 307                  261                  263                           350           12          130            0                 Open   ;
 309                  265                  267                          1580            8          130            0                 Open   ;
 311                  193                  267                          1170           12          130            0                 Open   ;
 313                  269                  189                           646           12          130            0                 Open   ;
 315                  181                  271                           260           24          130            0                 Open   ;
 317                  273                  275                          2230            8          130            0                 Open   ;
 319                  273                  205                           645           12          130            0                 Open   ;
 321                  163                  265                          1200           30          141            0                 Open   ;
 323                  201                  275                           300           12          130            0                 Open   ;
 325                  269                  271                          1290            8          130            0                 Open   ;
 329                  61                   123                         45500           30          140            0                 Open   ;
 330                  60                   601                             1           30          140            0               Closed   ;
 333                  601                  61                              1           30          140            0                 Open   ;
 40                   1                    40                             99           99          199            0                 Open   ;
 50                   2                    50                             99           99          199            0                 Open   ;
 60                   River                60                           1231           24          140            0                 Open   ;
 new_pipe             new_junction         101                       32.8084       196.85            1            3                 Open   ;

[PUMPS]
;ID                   Node1                Node2                Parameters          
 10                   Lake                 10                   HEAD     1                      ;
 335                  60                   61                   HEAD     2                      ;

[VALVES]
;ID                   Node1                Node2                    Diameter Type      Setting   Minor Loss

[STATUS]
;ID        Setting   
10         Closed    

[PATTERNS]
;ID        Multipliers

1 1.340000 1.940000 1.460000 1.440000 0.760000 0.920000 0.850000 1.070000
1 0.960000 1.100000 1.080000 1.190000 1.160000 1.080000 0.960000 0.830000
1 0.790000 0.740000 0.640000 0.640000 0.850000 0.960000 1.240000 1.670000

3 620.000000 620.000000 620.000000 620.000000 620.000000 360.000000 360.000000 0.000000
3 0.000000 0.000000 0.000000 360.000000 360.000000 360.000000 360.000000 360.000000
3 0.000000 0.000000 0.000000 0.000000 0.000000 0.000000 360.000000 360.000000

2 0.000000 0.000000 0.000000 0.000000 0.000000 1219.000000 0.000000 0.000000
2 0.000000 1866.000000 1836.000000 1818.000000 1818.000000 1822.000000 1822.000000 1817.000000
2 1824.000000 1816.000000 1833.000000 1817.000000 1830.000000 1814.000000 1840.000000 1859.000000

5 4439.000000 4531.000000 4511.000000 4582.000000 4531.000000 4582.000000 4572.000000 4613.000000
5 4643.000000 4643.000000 4592.000000 4613.000000 4531.000000 4521.000000 4449.000000 4439.000000
5 4449.000000 4460.000000 4439.000000 4419.000000 4368.000000 4399.000000 4470.000000 4480.000000

4 1637.000000 1706.000000 1719.000000 1719.000000 1791.000000 1819.000000 1777.000000 1842.000000
4 1815.000000 1825.000000 1856.000000 1801.000000 1819.000000 1733.000000 1664.000000 1620.000000
4 1613.000000 1620.000000 1616.000000 1647.000000 1627.000000 1627.000000 1671.000000 1668.000000

[CURVES]
;ID         X-Value      Y-Value     
;HEAD: 1
 1              0.000000   104.000000   ;
 1           2000.000000    92.000000   ;
 1           4000.000000    63.000000   ;

;HEAD: 2
 2              0.000000   200.000000   ;
 2           8000.000000   138.000000   ;
 2          14000.000000    86.000000   ;


[CONTROLS]
Link 10 Closed AT TIME 63
Link 10 Open AT TIME 73
Link 10 Closed AT TIME 39
Link 173 1.0 AT TIME 4
Link 335 Closed IF Node 1 above 19.1
Link 10 Closed AT TIME 159
Link 10 Open AT TIME 25
Link 10 Open AT TIME 145
Link 10 Open AT TIME 121
Link 10 Open AT TIME 97
Link 330 Closed IF Node 1 below 17.1
Link 10 Open AT TIME 49
Link 10 Open AT TIME 1
Link 10 Closed AT TIME 135
Link 10 Closed AT TIME 111
Link 10 Closed AT TIME 87
Link 173 0.0 AT TIME 8
Link 10 Closed AT TIME 15
Link 335 Open IF Node 1 below 17.1
Link 330 Open IF Node 1 above 19.1

[REPORT]
Status             	Yes
Summary            	No
Page               	0

[OPTIONS]
UNITS                GPM                 
HEADLOSS             H-W                 
QUALITY              CHEMICAL mg/L
VISCOSITY            1
DIFFUSIVITY          1
SPECIFIC GRAVITY     1
TRIALS               40
ACCURACY             0.001
CHECKFREQ            2
UNBALANCED           CONTINUE 10
PATTERN              1                   
DEMAND MULTIPLIER    1
EMITTER EXPONENT     0.5
TOLERANCE            0.01

[REACTIONS]
 ORDER BULK 0
 ORDER WALL 0
 ORDER TANK 0
 GLOBAL BULK 0.0000    
 GLOBAL WALL 0.0000    
 LIMITING POTENTIAL 0.0000    
 ROUGHNESS CORRELATION 0.0000    

[TIMES]
DURATION             10:00:00
HYDRAULIC TIMESTEP   00:15:00
PATTERN TIMESTEP     01:00:00
PATTERN START        00:00:00
REPORT TIMESTEP      00:15:00
REPORT START         00:00:00
START CLOCKTIME      00:00:00 AM
QUALITY TIMESTEP     00:15:00
RULE TIMESTEP        00:06:00
STATISTIC            NONE      

[COORDINATES]
;Node      X-Coord    Y-Coord   
217             42.11       8.67
215             39.95       8.73
213             35.26       6.16
211              34.2       5.54
219             44.86       9.32
131             37.89      29.55
139             33.28      24.54
225             43.53       7.38
20              29.44      26.91
120             22.08       23.1
121             23.54       25.5
261             20.79      21.45
123             23.37      27.31
267             23.38      12.95
125             24.59      25.64
265             25.39       13.6
127             29.29       26.4
129             30.32      26.39
269             25.03      12.14
River           24.15      31.06
50              33.01       3.01
199             29.42       8.44
195             23.18      14.72
197             20.97      15.18
191              22.1      14.07
193             22.88      14.35
115             20.98      19.18
271             25.97         11
117             21.69      21.28
273             29.16       7.38
111             20.21      17.53
275             31.07       8.29
113             22.04      16.61
119              23.7      22.76
204              23.8       10.9
206             31.66       6.64
3               29.41      27.27
new_junction          6         25
247             35.02       2.05
109             17.64      18.92
241             35.87       2.11
243             37.04          0
103             12.96      21.31