[TITLE]


[JUNCTIONS]
;ID              	Elev        	Demand      	Pattern         
 n1              	0           	0           	                	;
 n2              	0           	0           	                	;
 n3              	0           	0           	                	;
 n4              	0           	0           	                	;
 n5              	0           	0           	                	;
 n6              	0           	0           	                	;

[RESERVOIRS]
;ID              	Head        	Pattern         
 s               	0           	                	;

[TANKS]
;ID              	Elevation   	InitLevel   	MinLevel    	MaxLevel    	Diameter    	MinVol      	VolCurve

[PIPES]
;ID              	Node1           	Node2           	Length      	Diameter    	Roughness   	MinorLoss   	Status
 p1              	s               	n1              	1000        	12          	100         	0           	Open  	;
 p2              	n1              	n2              	1000        	12          	100         	0           	Open  	;
 p3              	n2              	n3              	1000        	12          	100         	0           	Open  	;
 p4              	n3              	n4              	1000        	12          	100         	0           	Open  	;
 p5              	n4              	n5              	1000        	12          	100         	0           	Open  	;
 p6              	n2              	n5              	1000        	12          	100         	0           	Open  	;
 p7              	n5              	n6              	1000        	12          	100         	0           	Open  	;
 p8              	n6              	n1              	1000        	12          	100         	0           	Open  	;


[PUMPS]
;ID              	Node1           	Node2           	Parameters

[VALVES]
;ID              	Node1           	Node2           	Diameter    	Type	Setting     	MinorLoss   

[TAGS]

[DEMANDS]
;Junction        	Demand      	Pattern         	Category

[STATUS]
;ID              	Status/Setting

[PATTERNS]
;ID              	Multipliers

[CURVES]
;ID              	X-Value     	Y-Value

[CONTROLS]


[RULES]


[ENERGY]
 Global Efficiency  	75
 Global Price       	0
 Demand Charge      	0

[EMITTERS]
;Junction        	Coefficient

[QUALITY]
;Node            	InitQual

[SOURCES]
;Node            	Type        	Quality     	Pattern

[REACTIONS]
;Type     	Pipe/Tank       	Coefficient


[REACTIONS]
 Order Bulk            	1
 Order Tank            	1
 Order Wall            	1
 Global Bulk           	0
 Global Wall           	0
 Limiting Potential    	0
 Roughness Correlation 	0

[MIXING]
;Tank            	Model

[TIMES]
 Duration           	0:00 
 Hydraulic Timestep 	1:00 
 Quality Timestep   	0:05 
 Pattern Timestep   	1:00 
 Pattern Start      	0:00 
 Report Timestep    	1:00 
 Report Start       	0:00 
 Start ClockTime    	12 am
 Statistic          	NONE

[REPORT]
 Status             	No
 Summary            	No
 Page               	0

[OPTIONS]
 Units              	GPM
 Headloss           	H-W
 Specific Gravity   	1
 Viscosity          	1
 Trials             	40
 Accuracy           	0.001
 CHECKFREQ          	2
 MAXCHECK           	10
 DAMPLIMIT          	0
 Unbalanced         	Continue 10
 Pattern            	1
 Demand Multiplier  	1.0
 Emitter Exponent   	0.5
 Quality            	None mg/L
 Diffusivity        	1
 Tolerance          	0.01

[COORDINATES]
;Node            	X-Coord         	Y-Coord
 n1              	-112.75         	8392.16         
 n2              	1299.02         	8392.16         
 n3              	2661.76         	8392.16         
 n4              	2661.76         	6990.20         
 n5              	1299.02         	6990.20         
 n6              	-112.75         	6990.20         
 s               	-1112.75        	9098.04         

[VERTICES]
;Link            	X-Coord         	Y-Coord

[LABELS]
;X-Coord           Y-Coord          Label & Anchor Node

[BACKDROP]
 DIMENSIONS     	0.00            	0.00            	10000.00        	10000.00        
 UNITS          	None
 FILE           	
 OFFSET         	0.00            	0.00            

[END]
