[TITLE]


[JUNCTIONS]
;ID              	Elev        	Demand      	Pattern         
 1               	0           	0           	                	;
 2               	0           	0.2         	                	;
 3               	0           	0.3         	                	;
 6               	0           	0.5         	                	;
 7               	0           	0           	                	;
 8               	0           	0.6         	                	;
 9               	0           	0.1         	                	;
 10              	0           	0.6         	                	;
 11              	0           	0.2         	                	;
 13              	0           	0           	                	;
 14              	0           	0.8         	                	;
 15              	0           	0.2         	                	;
 16              	0           	0.1         	                	;
 19              	0           	0.8         	                	;
 26              	0           	0.4         	                	;
 27              	0           	0           	                	;
 28              	0           	0.3         	                	;
 29              	0           	0.5         	                	;
 30              	0           	0.7         	                	;
 31              	0           	0.3         	                	;
 32              	0           	0.6         	                	;
 33              	0           	0           	                	;
 35              	0           	0           	                	;
 36              	0           	0           	                	;
 52              	0           	0.3         	                	;
 54              	0           	0.3         	                	;
 56              	0           	0.6         	                	;
 57              	0           	0.6         	                	;
 58              	0           	1           	                	;
 59              	0           	0.7         	                	;
 60              	0           	0.4         	                	;
 62              	0           	0.1         	                	;
 63              	0           	0.2         	                	;
 64              	0           	0.7         	                	;

[RESERVOIRS]
;ID              	Head        	Pattern         
 34              	100         	                	;

[TANKS]
;ID              	Elevation   	InitLevel   	MinLevel    	MaxLevel    	Diameter    	MinVol      	VolCurve

[PIPES]
;ID              	Node1           	Node2           	Length      	Diameter    	Roughness   	MinorLoss   	Status
 1               	2               	1               	600         	36          	100         	0           	Open  	;
 3               	2               	3               	500         	24          	100         	0           	Open  	;
 6               	7               	6               	540         	8           	100         	0           	Open  	;
 7               	7               	9               	500         	12          	100         	0           	Open  	;
 8               	8               	9               	545.7       	8           	100         	0           	Open  	;
 10              	10              	11              	545.7       	8           	100         	0           	Open  	;
 11              	11              	13              	600         	10          	100         	0           	Open  	;
 13              	13              	15              	500         	8           	100         	0           	Open  	;
 14              	15              	14              	611.0       	4           	100         	0           	Open  	;
 15              	16              	15              	500         	4           	100         	0           	Open  	;
 18              	19              	15              	600         	8           	100         	0           	Open  	;
 25              	26              	27              	500         	12          	100         	0           	Open  	;
 26              	27              	28              	600.0       	24          	100         	0           	Open  	;
 27              	27              	29              	800         	12          	100         	0           	Open  	;
 28              	29              	30              	900         	8           	100         	0           	Open  	;
 29              	33              	1               	2000        	36          	100         	0           	Open  	;
 31              	29              	31              	600.0       	8           	100         	0           	Open  	;
 32              	30              	32              	600         	4           	100         	0           	Open  	;
 34              	54              	35              	500         	12          	100         	0           	Open  	;
 35              	35              	36              	583.1       	8           	100         	0           	Open  	;
 38              	52              	36              	500         	8           	100         	0           	Open  	;
 54              	33              	34              	400         	36          	100         	0           	Open  	;
 55              	3               	26              	600         	24          	100         	0           	Open  	;
 56              	26              	7               	500         	12          	100         	0           	Open  	;
 59              	9               	11              	600         	12          	100         	0           	Open  	;
 60              	35              	30              	583.1       	10          	100         	0           	Open  	;
 62              	27              	29              	800         	8           	100         	0           	Open  	;
 63              	29              	30              	900         	4           	100         	0           	Open  	;
 64              	54              	52              	583.1       	8           	100         	0           	Open  	;
 66              	8               	10              	600         	8           	100         	0           	Open  	;
 68              	8               	56              	678.9       	4           	100         	0           	Open  	;
 69              	56              	57              	496.1       	4           	100         	0           	Open  	;
 70              	57              	10              	678.9       	4           	100         	0           	Open  	;
 71              	1               	58              	3400        	36          	100         	0           	Open  	;
 72              	56              	6               	880.3       	8           	100         	0           	Open  	;
 73              	36              	59              	600         	8           	100         	0           	Open  	;
 74              	59              	60              	1000        	8           	100         	0           	Open  	;
 76              	62              	54              	500         	8           	100         	0           	Open  	;
 77              	63              	62              	583.1       	8           	100         	0           	Open  	;
 78              	63              	52              	500         	4           	100         	0           	Open  	;
 79              	52              	64              	600         	4           	100         	0           	Open  	;
 80              	64              	59              	500         	4           	100         	0           	Open  	;

[PUMPS]
;ID              	Node1           	Node2           	Parameters

[VALVES]
;ID              	Node1           	Node2           	Diameter    	Type	Setting     	MinorLoss   

[TAGS]

[DEMANDS]
;Junction        	Demand      	Pattern         	Category

[STATUS]
;ID              	Status/Setting

[PATTERNS]
;ID              	Multipliers

[CURVES]
;ID              	X-Value     	Y-Value

[CONTROLS]




[RULES]




[ENERGY]
 Global Efficiency  	75
 Global Price       	0
 Demand Charge      	0

[EMITTERS]
;Junction        	Coefficient

[QUALITY]
;Node            	InitQual

[SOURCES]
;Node            	Type        	Quality     	Pattern

[REACTIONS]
;Type     	Pipe/Tank       	Coefficient


[REACTIONS]
 Order Bulk            	1
 Order Tank            	1
 Order Wall            	1
 Global Bulk           	0
 Global Wall           	0
 Limiting Potential    	0
 Roughness Correlation 	0

[MIXING]
;Tank            	Model

[TIMES]
 Duration           	0:00 
 Hydraulic Timestep 	1:00 
 Quality Timestep   	0:05 
 Pattern Timestep   	1:00 
 Pattern Start      	0:00 
 Report Timestep    	1:00 
 Report Start       	0:00 
 Start ClockTime    	12 am
 Statistic          	NONE

[REPORT]
 Status             	No
 Summary            	No
 Page               	0

[OPTIONS]
 Units              	GPM
 Headloss           	H-W
 Specific Gravity   	1
 Viscosity          	1
 Trials             	40
 Accuracy           	0.001
 CHECKFREQ          	2
 MAXCHECK           	10
 DAMPLIMIT          	0
 Unbalanced         	Continue 10
 Pattern            	1
 Demand Multiplier  	1.0
 Emitter Exponent   	0.5
 Quality            	None mg/L
 Diffusivity        	1
 Tolerance          	0.01

[COORDINATES]
;Node            	X-Coord         	Y-Coord
 1               	0.00            	7000.00         
 2               	500.00          	7000.00         
 3               	1000.00         	7000.00         
 6               	2000.00         	7500.00         
 7               	2000.00         	7000.00         
 8               	2500.00         	7545.69         
 9               	2500.00         	7000.00         
 10              	3000.00         	7545.69         
 11              	3000.00         	7000.00         
 13              	3500.00         	7000.00         
 14              	4000.00         	7610.97         
 15              	4000.00         	7000.00         
 16              	4500.00         	7000.00         
 19              	4000.00         	6400.00         
 26              	1500.00         	7000.00         
 27              	1500.00         	6500.00         
 28              	900.00          	6501.31         
 29              	1500.00         	5700.00         
 30              	1500.00         	4800.00         
 31              	900.00          	5704.96         
 32              	900.00          	4800.00         
 33              	0.00            	9000.00         
 35              	2000.00         	4500.00         
 36              	2500.00         	4200.00         
 52              	2500.00         	4700.00         
 54              	2000.00         	5000.00         
 56              	2500.00         	8224.54         
 57              	2996.08         	8224.54         
 58              	0.00            	4200.00         
 59              	3000.00         	4200.00         
 60              	4000.00         	4200.00         
 62              	2000.00         	5500.00         
 63              	2500.00         	5200.00         
 64              	3000.00         	4700.00         
 34              	-400.00         	9000.00         

[VERTICES]
;Link            	X-Coord         	Y-Coord
 62              	1768.93         	5992.17         
 63              	1847.26         	5234.99         

[LABELS]
;X-Coord           Y-Coord          Label & Anchor Node

[BACKDROP]
 DIMENSIONS     	0.00            	0.00            	10000.00        	10000.00        
 UNITS          	None
 FILE           	
 OFFSET         	0.00            	0.00            

[END]
