[TITLE]
 Small Test Network 3

[JUNCTIONS]
;ID           	              	Elev        	Demand      	Pattern         
 junction1              	0         	0           	pattern1                	;
 junction2              	0         	20         	pattern1                	;

[RESERVOIRS]
;ID              	Head        	Pattern         
 res1			15		pattern1	;

[TANKS]
;ID              	Elevation   	InitLevel   	MinLevel    	MaxLevel    	Diameter		MinVol      	VolCurve
 tank1			0		20		10		100		2.256758334191025	0		                ;

[PIPES]
;ID              	Node1           	Node2           	Length      	Diameter    	Roughness   	MinorLoss   	Status
 pipe1              	tank1          		junction1             	1000       	457.2          	100         	0           	Open  	;
 pipe2			res1			tank1			1000		457.2		100		0		Closed	;

[PUMPS]
;ID	Node1 	      Node2   	       Parameters
 pump1	junction1     junction2	       HEAD curve1	;

[VALVES]

[PATTERNS]
 pattern1			1.0	1.0	1.0	1.0
 pattern2               	1.0	1.25	1.5	1.25

[CURVES]
 curve1	20	20

[CONTROLS]
 LINK pipe2 OPEN AT TIME 8:00

[COORDINATES]
;Node            	X-Coord         	Y-Coord
 res1			-24.00			0.00
 tank1              	1.00           		0.00           
 junction1             	26.00           	0.00           
 junction2             	51.00           	0.00           

[TIMES]
 Duration           	24:00 
 Hydraulic Timestep 	1:00 
 Quality Timestep   	1:00 
 Rule Timesetp		1:00
 Pattern Timestep   	6:00 
 Pattern Start      	0:00 
 Report Timestep    	1:00 
 Report Start       	0:00 
 Start ClockTime    	12 am
 Statistic          	NONE

[OPTIONS]
 Units              	CMH
 Headloss           	H-W
 Quality		None
 Specific Gravity   	1.0
 Viscosity          	1.0
 Trials             	50
 Accuracy           	0.001
 Unbalanced         	Stop
 Pattern            	pattern1
 Demand Multiplier  	1.0
 Tolerance          	0.01

[REPORT]
 Status             	Yes
 Summary            	No
 Energy			No

[VERTICES]

[LABELS]

[BACKDROP]

[TAGS]

[DEMANDS]

[STATUS]

[RULES]

[ENERGY]

[EMITTERS]

[QUALITY]

[SOURCES]

[REACTIONS]

[MIXING]

[END]
