[TITLE]

[JUNCTIONS]
;ID                      Elevation       Demand Pattern                 
 J-1                         611.3897            2.49 1                          ;
 J-10                        545.9175            1.64 1                          ;
 J-100                       705.7985            1.18 1                          ;
 J-101                       640.0722            0.25 1                          ;
 J-102                         702.97            0.12 1                          ;
 J-103                       705.2352            0.71 1                          ;
 J-104                       646.3833            0.75 1                          ;
 J-105                       668.9732            0.14 1                          ;
 J-106                        699.173            0.96 1                          ;
 J-107                       647.2618            0.35 1                          ;
 J-108                       690.9811            0.95 1                          ;
 J-109                            701            1.16 1                          ;
 J-11                        637.2947            5.99 1                          ;
 J-110                       670.4779            0.53 1                          ;
 J-111                       573.2955            2.36 1                          ;
 J-112                       689.9996            1.67 1                          ;
 J-113                       703.3193            0.76 1                          ;
 J-114                       582.1908            0.47 1                          ;
 J-115                       627.2476             0.1 1                          ;
 J-116                       661.1915            0.78 1                          ;
 J-117                       651.1648            0.31 1                          ;
 J-118                       624.8696            0.78 1                          ;
 J-119                       612.3486            0.31 1                          ;
 J-12                        593.7883            0.29 1                          ;
 J-120                       653.7983             0.7 1                          ;
 J-121                        648.329            0.09 1                          ;
 J-122                       648.2589            0.66 1                          ;
 J-123                       662.4215            1.12 1                          ;
 J-124                       661.3864            0.48 1                          ;
 J-125                       688.9498            1.36 1                          ;
 J-126                       654.0396            0.63 1                          ;
 J-127                       588.2053            1.23 1                          ;
 J-128                       667.5834            0.47 1                          ;
 J-129                       642.8438            0.27 1                          ;
 J-13                        670.2325            0.43 1                          ;
 J-130                       673.0019            0.57 1                          ;
 J-131                        672.274            0.48 1                          ;
 J-132                       671.2997            0.37 1                          ;
 J-133                       703.3038            0.36 1                          ;
 J-134                       670.3339            0.69 1                          ;
 J-135                       561.1207            5.37 1                          ;
 J-136                       680.8624             0.8 1                          ;
 J-137                       681.1472            1.11 1                          ;
 J-138                       671.3608            0.93 1                          ;
 J-14                        673.0455            0.24 1                          ;
 J-140                       669.1882            0.94 1                          ;
 J-141                       681.6787            0.76 1                          ;
 J-142                       679.1291             0.8 1                          ;
 J-143                            683             0.5 1                          ;
 J-144                       667.4946            0.47 1                          ;
 J-145                       655.6299             1.3 1                          ;
 J-146                       664.2756            0.88 1                          ;
 J-147                       653.7028            1.08 1                          ;
 J-148                       599.9139            1.43 1                          ;
 J-149                       586.0212            0.55 1                          ;
 J-15                        661.9545             2.3 1                          ;
 J-150                       663.2162            0.06 1                          ;
 J-151                       670.0553            0.69 1                          ;
 J-152                        658.956            1.26 1                          ;
 J-153                       675.3078            1.03 1                          ;
 J-154                       661.5909            0.38 1                          ;
 J-155                       598.4144            2.45 1                          ;
 J-156                       622.5045            1.39 1                          ;
 J-157                       613.1131            1.48 1                          ;
 J-158                       599.1604            1.12 1                          ;
 J-159                       651.9081            0.58 1                          ;
 J-16                        669.4413            1.96 1                          ;
 J-160                       659.7002            0.53 1                          ;
 J-161                       672.8035            0.76 1                          ;
 J-162                       671.9999            0.91 1                          ;
 J-163                       677.1188             0.8 1                          ;
 J-164                       660.3669            0.75 1                          ;
 J-165                       670.9658            0.47 1                          ;
 J-166                        651.364            2.77 1                          ;
 J-167                       651.1495            1.62 1                          ;
 J-168                       683.8399             1.6 1                          ;
 J-169                       582.1436            0.95 1                          ;
 J-17                        676.3677            2.24 1                          ;
 J-170                       662.4749            1.38 1                          ;
 J-171                       531.3535            1.43 1                          ;
 J-172                       528.0164               1 1                          ;
 J-173                       547.9309            1.99 1                          ;
 J-174                       550.2088            0.41 1                          ;
 J-175                       652.9064            0.11 1                          ;
 J-176                       668.0862            0.71 1                          ;
 J-177                       687.1208            0.47 1                          ;
 J-178                       656.4954            0.62 1                          ;
 J-179                       653.8172            0.39 1                          ;
 J-18                        661.5563             0.7 1                          ;
 J-180                       678.9312            0.09 1                          ;
 J-181                       660.5959            0.73 1                          ;
 J-182                       665.0781            0.44 1                          ;
 J-183                       672.2737            1.16 1                          ;
 J-184                       706.1798            0.24 1                          ;
 J-185                         698.86            1.48 1                          ;
 J-186                        604.281            1.19 1                          ;
 J-187                       619.6113            2.12 1                          ;
 J-188                       593.2393            1.67 1                          ;
 J-189                       620.5963            0.79 1                          ;
 J-19                        669.8918            1.12 1                          ;
 J-190                        535.014            0.86 1                          ;
 J-191                       672.9089            0.57 1                          ;
 J-192                       698.6069            1.38 1                          ;
 J-194                        684.614            1.16 1                          ;
 J-195                       603.9262            0.17 1                          ;
 J-196                       664.9097               1 1                          ;
 J-197                        702.527             1.5 1                          ;
 J-198                       654.2453            0.07 1                          ;
 J-199                       561.3089            0.26 1                          ;
 J-2                         644.8513            0.83 1                          ;
 J-20                        641.9392             0.2 1                          ;
 J-200                       586.3203            0.73 1                          ;
 J-201                       560.7526            3.07 1                          ;
 J-202                       540.9995             0.4 1                          ;
 J-203                       529.6254            2.05 1                          ;
 J-204                       623.8754            0.23 1                          ;
 J-205                       608.3518            0.79 1                          ;
 J-206                        701.861               2 1                          ;
 J-207                       704.9999            1.68 1                          ;
 J-208                       705.9305            1.03 1                          ;
 J-209                       702.2105            0.61 1                          ;
 J-21                        621.1598            0.91 1                          ;
 J-210                       698.0419            0.54 1                          ;
 J-211                       652.7701            0.54 1                          ;
 J-212                       706.6829               0 1                          ;
 J-213                       567.4011            0.28 1                          ;
 J-214                       585.9201            0.94 1                          ;
 J-215                       660.2689            0.81 1                          ;
 J-215a                      593.4382            1.04 1                          ;
 J-216                       687.7719               0 1                          ;
 J-217                       720.2726               0 1                          ;
 J-218                       580.5884            0.97 1                          ;
 J-219                       659.6726            0.13 1                          ;
 J-22                        567.7947            0.23 1                          ;
 J-220                       589.2892            0.11 1                          ;
 J-221                       659.2394            1.58 1                          ;
 J-222                       652.6212            0.94 1                          ;
 J-223                        635.125            2.55 1                          ;
 J-224                       634.5322             2.9 1                          ;
 J-225                       631.4617            0.13 1                          ;
 J-226                       640.8549            0.82 1                          ;
 J-227                       618.5958               0 1                          ;
 J-228                       553.4232               0 1                          ;
 J-229                        551.276               0 1                          ;
 J-23                        640.7189            0.99 1                          ;
 J-230                       553.4232               0 1                          ;
 J-231                       638.4586            0.45 1                          ;
 J-232                       643.9478               0 1                          ;
 J-233                       666.3503               0 1                          ;
 J-234                       681.5925            0.22 1                          ;
 J-235                       711.9325            1.49 1                          ;
 J-236                       620.9119            0.28 1                          ;
 J-237                       655.5486               0 1                          ;
 J-238                         587.78            0.34 1                          ;
 J-239                       662.4548               0 1                          ;
 J-24                        647.9995            0.52 1                          ;
 J-240                       704.1571            0.23 1                          ;
 J-242                       638.6282            0.14 1                          ;
 J-243                       659.9285               0 1                          ;
 J-244                       653.8528               0 1                          ;
 J-245                       672.8326            0.17 1                          ;
 J-246                       661.8329               0 1                          ;
 J-247                        681.319            0.22 1                          ;
 J-248                        653.826               0 1                          ;
 J-249                       616.2586            4.45 1                          ;
 J-25                        591.6583            1.39 1                          ;
 J-250                       580.0739            1.02 1                          ;
 J-251                       609.9346            2.32 1                          ;
 J-252                       593.6077            1.35 1                          ;
 J-253                       528.5584            0.31 1                          ;
 J-254                       535.5576            4.09 1                          ;
 J-255                       665.9338            2.69 1                          ;
 J-256                       636.6573            1.92 1                          ;
 J-257                       584.5164             3.1 1                          ;
 J-258                        715.106            0.44 1                          ;
 J-259                       708.9807            1.08 1                          ;
 J-26                        652.4172            1.14 1                          ;
 J-260                       651.6981            0.88 1                          ;
 J-261                       639.2839            0.84 1                          ;
 J-262                       693.4462            4.69 1                          ;
 J-263                        596.951            0.83 1                          ;
 J-264                       590.3044            1.42 1                          ;
 J-265                        574.914            0.53 1                          ;
 J-266                       601.3432             1.5 1                          ;
 J-267                        589.557            1.27 1                          ;
 J-268                          568.9            4.17 1                          ;
 J-269                       670.6152            1.23 1                          ;
 J-27                        635.7896            4.51 1                          ;
 J-270                       684.4353            1.32 1                          ;
 J-271                       567.2652            6.11 1                          ;
 J-272                       605.6317            4.86 1                          ;
 J-273                         675.95               0 1                          ;
 J-274                       545.5644               0 1                          ;
 J-275                       674.1492            0.81 1                          ;
 J-276                       645.7823            1.98 1                          ;
 J-277                       643.9767            2.59 1                          ;
 J-278                       542.6953            0.95 1                          ;
 J-279                       533.7531            0.22 1                          ;
 J-28                        652.7073            1.78 1                          ;
 J-280                       542.9407            0.28 1                          ;
 J-281                       667.1216            0.95 1                          ;
 J-282                       621.3289             1.1 1                          ;
 J-283                       608.9711            0.88 1                          ;
 J-284                       561.0002             2.2 1                          ;
 J-285                       552.4173            0.62 1                          ;
 J-286                        616.629            1.35 1                          ;
 J-287                       615.5096            0.28 1                          ;
 J-288                       631.3071            2.99 1                          ;
 J-289                       630.3802            2.35 1                          ;
 J-29                        651.8645            1.13 1                          ;
 J-290                            642            4.44 1                          ;
 J-291                       670.9255             0.5 1                          ;
 J-292                       671.0214            0.85 1                          ;
 J-293                       679.0461               1 1                          ;
 J-294                        665.231            0.83 1                          ;
 J-295                       603.6039             0.2 1                          ;
 J-296                       618.0672            3.16 1                          ;
 J-297                       683.1727            3.13 1                          ;
 J-298                       673.8575            1.38 1                          ;
 J-299                        683.208            0.41 1                          ;
 J-3                         704.5603            0.98 1                          ;
 J-30                         660.874            0.47 1                          ;
 J-300                       674.1644            0.85 1                          ;
 J-301                       652.5364            1.25 1                          ;
 J-302                       667.8233            4.01 1                          ;
 J-303                       643.1302            2.97 1                          ;
 J-304                        561.838            1.17 1                          ;
 J-305                       579.0892            0.45 1                          ;
 J-306                        636.644            0.56 1                          ;
 J-307                       594.6923            1.82 1                          ;
 J-308                       662.5485            0.56 1                          ;
 J-309                        667.735            0.63 1                          ;
 J-31                        671.4662            1.42 1                          ;
 J-310                       536.7413            2.62 1                          ;
 J-311                       491.0113            1.32 1                          ;
 J-312                       585.4805            0.34 1                          ;
 J-313                       629.2569            1.82 1                          ;
 J-314                       608.2317            1.18 1                          ;
 J-315                       514.5867            3.33 1                          ;
 J-316                       678.0001            1.02 1                          ;
 J-317                       692.4381            1.53 1                          ;
 J-318                       601.8991            1.54 1                          ;
 J-319                       540.4709            1.21 1                          ;
 J-32                        625.6386            0.34 1                          ;
 J-320                       537.6797            0.24 1                          ;
 J-321                       614.7097            2.94 1                          ;
 J-322                        648.081            3.25 1                          ;
 J-323                         635.24            1.86 1                          ;
 J-324                        627.232            0.21 1                          ;
 J-325                       585.8162            1.13 1                          ;
 J-326                       639.5627            2.59 1                          ;
 J-327                       638.1283             0.5 1                          ;
 J-328                       640.6234            1.03 1                          ;
 J-329                       668.1897            0.76 1                          ;
 J-33                        585.1734             1.5 1                          ;
 J-330                       583.6055            0.12 1                          ;
 J-331                       627.3813            2.03 1                          ;
 J-332                       605.5622            0.96 1                          ;
 J-333                       548.2193            2.38 1                          ;
 J-334                       552.8684             0.6 1                          ;
 J-335                       584.4908            0.88 1                          ;
 J-336                       581.1183            0.57 1                          ;
 J-337                       559.8429            1.94 1                          ;
 J-338                       551.3201            1.14 1                          ;
 J-339                       670.7141            3.58 1                          ;
 J-34                        639.8541            2.33 1                          ;
 J-340                       701.0293             0.5 1                          ;
 J-341                       703.9989            0.47 1                          ;
 J-342                       588.3627             1.1 1                          ;
 J-343                       564.8101            1.57 1                          ;
 J-344                       698.4418            1.94 1                          ;
 J-345                       697.1221            1.18 1                          ;
 J-346                       667.8207            2.16 1                          ;
 J-347                       685.0993             1.8 1                          ;
 J-348                       611.2399            0.54 1                          ;
 J-349                        640.983             0.6 1                          ;
 J-35                        666.8081            0.39 1                          ;
 J-350                       618.4811            3.26 1                          ;
 J-351                       549.4897             2.4 1                          ;
 J-352                       605.8963            1.27 1                          ;
 J-353                       629.8826             1.2 1                          ;
 J-354                       624.1177            0.54 1                          ;
 J-355                       689.4954            0.25 1                          ;
 J-356                       690.2985            0.08 1                          ;
 J-357                       702.8609            0.56 1                          ;
 J-358                       702.9841            0.16 1                          ;
 J-359                       684.9272            1.88 1                          ;
 J-36                        638.7365            0.67 1                          ;
 J-360                       682.2211            0.04 1                          ;
 J-361                       654.6603            1.75 1                          ;
 J-362                       668.9615            0.94 1                          ;
 J-363                       709.1883            0.09 1                          ;
 J-364                       708.9263            0.86 1                          ;
 J-365                       689.5886            0.94 1                          ;
 J-366                         689.83            1.14 1                          ;
 J-367                       612.7321            0.51 1                          ;
 J-368                       604.8912            0.12 1                          ;
 J-369                       583.7908            0.87 1                          ;
 J-37                        689.8104            1.44 1                          ;
 J-370                        599.817            0.76 1                          ;
 J-371                       642.1349            0.68 1                          ;
 J-372                       601.9686            0.38 1                          ;
 J-373                       639.5333            0.37 1                          ;
 J-374                       554.2187            2.13 1                          ;
 J-375                       711.4459            0.72 1                          ;
 J-376                       701.3586            1.94 1                          ;
 J-377                       700.9207             0.4 1                          ;
 J-378                       699.9644            1.84 1                          ;
 J-379                       707.0911            1.31 1                          ;
 J-38                        649.4333            0.52 1                          ;
 J-380                       675.1678            0.68 1                          ;
 J-381                       682.5584            7.52 1                          ;
 J-382                       600.0197            2.36 1                          ;
 J-383                       634.2656            1.38 1                          ;
 J-384                       638.9119            0.27 1                          ;
 J-385                       683.3463            0.92 1                          ;
 J-386                       690.6075             0.9 1                          ;
 J-387                       647.4901            3.77 1                          ;
 J-388                       654.2389            2.58 1                          ;
 J-389                            699            0.25 1                          ;
 J-39                        659.2862            0.63 1                          ;
 J-390                       639.7813            1.63 1                          ;
 J-391                       688.5449            1.39 1                          ;
 J-392                       691.7328            1.33 1                          ;
 J-393                       685.8435            0.63 1                          ;
 J-394                       608.2966            0.34 1                          ;
 J-395                       622.4385             1.2 1                          ;
 J-396                       635.9316            4.43 1                          ;
 J-397                       636.1953            1.36 1                          ;
 J-398                       638.8102            0.61 1                          ;
 J-399                       632.8221            0.46 1                          ;
 J-4                         703.7249            0.62 1                          ;
 J-40                        640.0374            0.38 1                          ;
 J-400                       706.5521            2.59 1                          ;
 J-401                       669.3935            0.72 1                          ;
 J-402                       688.6606            0.99 1                          ;
 J-403                       637.0497            2.81 1                          ;
 J-404                       663.7161            1.34 1                          ;
 J-405                            641            2.95 1                          ;
 J-406                       542.1808            2.73 1                          ;
 J-407                       528.7239            1.14 1                          ;
 J-408                       588.5675            2.47 1                          ;
 J-409                       639.7154            0.68 1                          ;
 J-41                        663.6583            0.57 1                          ;
 J-410                       629.2969            3.46 1                          ;
 J-411                       693.8269            0.43 1                          ;
 J-412                       644.2049            0.81 1                          ;
 J-413                       650.1973            0.36 1                          ;
 J-414                        697.355            0.79 1                          ;
 J-415                       696.2896             0.5 1                          ;
 J-416                       700.0205            0.87 1                          ;
 J-417                       696.9081            1.37 1                          ;
 J-418                       482.5705            2.42 1                          ;
 J-419                       491.5032            3.83 1                          ;
 J-42                        660.9106            0.12 1                          ;
 J-420                       695.9309            1.04 1                          ;
 J-421                       695.6784            1.85 1                          ;
 J-422                       706.0865            1.72 1                          ;
 J-423                       672.0674            1.42 1                          ;
 J-424                       708.4379            1.28 1                          ;