[TITLE]

[JUNCTIONS]
;ID                      Elevation       Demand Pattern                 
 1                       696.59385781               0 1                          ;
 2                       686.92970776               0 1                          ;
 3                       689.65316132               0 1                          ;
 4                       660.01491597               0 1                          ;
 5                       635.33427521               0 1                          ;
 6                       639.79401676               0 1                          ;
 7                       627.89621628               0 1                          ;
 8                       649.17767142               0 1                          ;
 9                       654.01943337               0 1                          ;
 10                      610.71976589               0 1                          ;
 11                      719.82516391               0 1                          ;
 12                      721.72084818               0 1                          ;
 13                      722.24529397               0 1                          ;
 14                      720.93613192               0 1                          ;
 15                      713.69546605               0 1                          ;
 16                      725.19968188               0 1                          ;
 17                      726.28631992               0 1                          ;
 18                      723.62629447               0 1                          ;
 19                      670.77551614               0 1                          ;
 20                      612.47377571               0 1                          ;
 21                      593.17941741               0 1                          ;
 22                       595.5758683               0 1                          ;
 23                      625.94826766               0 1                          ;
 24                      689.17086744               0 1                          ;
 25                       648.4000639               0 1                          ;
 26                      701.78950553               0 1                          ;
 27                      702.31805636               0 1                          ;
 28                      698.19633103               0 1                          ;
 29                      699.37788595               0 1                          ;
 30                      700.76889879               0 1                          ;
 31                      701.65313761               0 1                          ;
 32                      709.84622625               0 1                          ;
 33                      718.44100952               0 1                          ;
 34                       717.4252087               0 1                          ;
 35                      714.10572122               0 1                          ;
 36                      702.66568442               0 1                          ;
 37                      696.46800284               0 1                          ;
 38                      692.97319948               0 1                          ;
 39                      647.85574365               0 1                          ;
 40                      664.91109493               0 1                          ;
 41                      700.24084857               0 1                          ;
 42                      703.26532279               0 1                          ;
 43                      699.29483369               0 1                          ;
 44                      720.79701061               0 1                          ;
 45                      719.03143655               0 1                          ;
 46                      722.87221593               0 1                          ;
 47                      720.72527227               0 1                          ;
 48                      719.72218711               0 1                          ;
 49                      719.84864282               0 1                          ;
 50                      714.10812418               0 1                          ;
 51                       706.2530017               0 1                          ;
 52                      702.68435741               0 1                          ;
 53                       702.3326243               0 1                          ;
 54                      714.92913514               0 1                          ;
 55                      713.66813239               0 1                          ;
 56                      704.89603078               0 1                          ;
 57                      712.16137703               0 1                          ;
 58                      726.93732154               0 1                          ;
 59                      722.42361354               0 1                          ;
 60                      720.92321601               0 1                          ;
 61                      717.81709125               0 1                          ;
 62                      718.64571158               0 1                          ;
 63                      687.52113603               0 1                          ;
 64                       691.7520458               0 1                          ;
 65                       682.8342648               0 1                          ;
 66                       699.6820605               0 1                          ;
 67                       702.3216608               0 1                          ;
 68                      702.79614506               0 1                          ;
 69                      694.84665638               0 1                          ;
 70                      694.84665638               0 1                          ;
 71                      698.53760126               0 1                          ;
 72                      701.02386274               0 1                          ;
 73                      703.56013581               0 1                          ;
 74                      701.14466149               0 1                          ;
 75                      695.90606089               0 1                          ;
 76                      696.06400537               0 1                          ;
 77                      696.35956932               0 1                          ;
 78                      693.49909705               0 1                          ;
 79                      696.55485979               0 1                          ;
 80                      691.98918781               0 1                          ;
 81                      693.07247172               0 1                          ;
 82                      691.32697238               0 1                          ;
 83                      691.32697238               0 1                          ;
 84                      692.25836927               0 1                          ;
 85                      685.57213611               0 1                          ;
 86                      685.79486036               0 1                          ;
 87                      687.96237936               0 1                          ;
 88                      682.64888653               0 1                          ;
 89                      683.58719192               0 1                          ;
 90                      678.41797676               0 1                          ;
 91                      683.56916973               0 1                          ;
 92                      704.77062636               0 1                          ;
 93                      704.13504373               0 1                          ;
 94                       706.2639652               0 1                          ;
 95                      704.69468284               0 1                          ;
 96                       704.9127013               0 1                          ;
 97                      703.93129284               0 1                          ;
 98                      699.35090273               0 1                          ;
 99                      698.69008903               0 1                          ;
 100                     705.45802279               0 1                          ;
 101                     704.14060057               0 1                          ;
 102                     697.68945689               0 1                          ;
 103                     699.19571163               0 1                          ;
 104                     696.22465319               0 1                          ;
 105                     691.22524712               0 1                          ;
 106                     697.58718095               0 1                          ;
 107                     697.66057132               0 1                          ;
 108                     696.24367661               0 1                          ;
 109                     691.52476594               0 1                          ;
 110                     559.36963539               0 1                          ;
 111                     633.56925183               0 1                          ;
 112                     575.99786073               0 1                          ;
 113                     646.99588485               0 1                          ;
 114                      642.4252067               0 1                          ;
 115                     658.40042795               0 1                          ;
 116                     668.88759142               0 1                          ;
 117                     677.93593319               0 1                          ;
 118                     673.48900742               0 1                          ;
 119                     677.65068194               0 1                          ;
 120                     679.29205306               0 1                          ;
 121                     672.46549711               0 1                          ;
 122                     679.05566198               0 1                          ;
 123                     673.87047715               0 1                          ;
 124                      687.9556711               0 1                          ;
 125                     687.61980753               0 1                          ;
 126                     680.67555665               0 1                          ;
 127                      688.2841756               0 1                          ;
 128                      689.9174868               0 1                          ;
 129                     689.12981689               0 1                          ;
 130                     691.48716964               0 1                          ;
 131                     704.93572966               0 1                          ;
 132                     706.38851857               0 1                          ;
 133                     707.42028905               0 1                          ;
 134                     709.53299054               0 1                          ;
 135                     712.44757945               0 1                          ;
 136                     651.83379206               0 1                          ;
 137                     687.93209206               0 1                          ;
 138                     688.74589414               0 1                          ;
 139                     697.80840336               0 1                          ;
 140                     667.65091864               0 1                          ;
 141                     660.53986236               0 1                          ;
 142                     691.46604363               0 1                          ;
 143                     621.16647956               0 1                          ;
 144                      612.3084221               0 1                          ;
 145                     619.65191458               0 1                          ;
 146                     638.38703426               0 1                          ;
 147                     591.37724829               0 1                          ;
 148                     648.13578848               0 1                          ;
 149                     648.13578848               0 1                          ;
 150                     648.34945158               0 1                          ;
 151                     652.17431136               0 1                          ;
 152                     617.21075864               0 1                          ;
 153                     583.69043305               0 1                          ;
 154                     653.31912103               0 1                          ;
 155                     655.19803465               0 1                          ;
 156                     668.42016586               0 1                          ;
 157                     645.75425596               0 1                          ;
 158                     660.94130669               0 1                          ;
 159                     657.81165296               0 1                          ;
 160                     641.59638613               0 1                          ;
 161                     610.53909342               0 1                          ;
 162                     606.35789486               0 1                          ;
 163                     615.96497463               0 1                          ;
 164                     587.12611361               0 1                          ;
 165                     591.18586262               0 1                          ;
 166                     620.63572601               0 1                          ;
 167                      617.8490446               0 1                          ;
 168                       659.519556               0 1                          ;
 169                      635.5719679               0 1                          ;
 170                     631.75902279               0 1                          ;
 171                     582.31699185               0 1                          ;
 172                     488.87973695               0 1                          ;
 173                     581.31380657               0 1                          ;
 174                     598.25742026               0 1                          ;
 175                      644.7840613               0 1                          ;
 176                     634.90264372               0 1                          ;
 177                     630.19469654               0 1                          ;
 178                      608.3910484               0 1                          ;
 179                     649.35939518               0 1                          ;
 180                     649.07104012               0 1                          ;
 181                      647.3828113               0 1                          ;
 182                     655.17600753               0 1                          ;
 183                     655.09130323               0 1                          ;
 184                     626.58980763               0 1                          ;
 185                     672.83945759               0 1                          ;
 186                     675.22724782               0 1                          ;
 187                      682.5163233               0 1                          ;
 188                     674.84492705               0 1                          ;
 189                     659.95794582               0 1                          ;
 190                     661.89052552               0 1                          ;
 191                      663.1189882               0 1                          ;
 192                     655.28544228               0 1                          ;
 193                     659.72766225               0 1                          ;
 194                     664.90253438               0 1                          ;
 195                     663.72218094               0 1                          ;
 196                     667.59600101               0 1                          ;
 197                     657.07179192               0 1                          ;
 198                     655.00189313               0 1                          ;
 199                     649.25381518               0 1                          ;
 200                     635.95008349               0 1                          ;
 201                     651.86332843               0 1                          ;
 202                     657.53746533               0 1                          ;
 203                     646.22853997               0 1                          ;
 204                     644.32094103               0 1                          ;
 205                     628.02582588               0 1                          ;
 206                     653.75330567               0 1                          ;
 207                     639.91826976               0 1                          ;
 208                     642.82194523               0 1                          ;
 209                     625.98311056               0 1                          ;
 210                     607.72147391               0 1                          ;
 211                      646.7535865               0 1                          ;
 212                     657.02748737               0 1                          ;
 213                      684.3452754               0 1                          ;
 214                     683.82082962               0 1                          ;
 215                     671.77149255               0 1                          ;
 216                     690.37019424               0 1                          ;
 217                      665.6124085               0 1                          ;
 218                     666.07192432               0 1                          ;
 219                     683.36091329               0 1                          ;
 220                     680.36532465               0 1                          ;
 221                     636.88133019               0 1                          ;
 222                     617.00715793               0 1                          ;
 223                     670.91583893               0 1                          ;
 224                     669.25183995               0 1                          ;
 225                     656.25533657               0 1                          ;
 226                     639.31482671               0 1                          ;
 227                     638.07835416               0 1                          ;
 228                     646.96179287               0 1                          ;
 229                     665.47038361               0 1                          ;
 230                     667.73717485               0 1                          ;
 231                     667.18719763               0 1                          ;
 232                     663.61249588               0 1                          ;
 233                     665.74512191               0 1                          ;
 234                     664.35741314               0 1                          ;
 235                     663.33900912               0 1                          ;
 236                     660.54767198               0 1                          ;
 237                     659.88390464               0 1                          ;
 238                     674.40443464               0 1                          ;
 239                     676.83062215               0 1                          ;
 240                     676.37380965               0 1                          ;
 241                     674.99120717               0 1                          ;
 242                     678.17612896               0 1                          ;
 243                     654.05512732               0 1                          ;
 244                     666.43487124               0 1                          ;
 245                     670.67534279               0 1                          ;
 246                     675.16001504               0 1                          ;
 247                     672.49207985               0 1                          ;
 248                     668.94676429               0 1                          ;
 249                     662.79513942               0 1                          ;
 250                     658.25169481               0 1                          ;
 251                     661.73999015               0 1                          ;
 252                     662.52725957               0 1                          ;
 253                     650.76267313               0 1                          ;
 254                     651.17483064               0 1                          ;
 255                      661.8252952               0 1                          ;
 256                     644.21506066               0 1                          ;
 257                     654.27479782               0 1                          ;
 258                     657.58046829               0 1                          ;
 259                      664.2768139               0 1                          ;
 260                     649.98186167               0 1                          ;
 261                     651.79224089               0 1                          ;
 262                     651.47935562               0 1                          ;
 263                     638.27154205               0 1                          ;
 264                     646.91598647               0 1                          ;
 265                     647.73970076               0 1                          ;
 266                     639.43457416               0 1                          ;
 267                     686.67138968               0 1                          ;
 268                     691.21072924               0 1                          ;
 269                     691.85767587               0 1                          ;
 270                     694.23425229               0 1                          ;
 271                     690.68918704               0 1                          ;
 272                     686.01753455               0 1                          ;
 273                     678.58923764               0 1                          ;
 274                     670.99488626               0 1                          ;
 275                     677.16848819               0 1                          ;
 276                     658.10276142               0 1                          ;
 277                     673.04395941               0 1                          ;
 278                     667.31245186               0 1                          ;
 279                     661.73593516               0 1                          ;
 280                     671.27307882               0 1                          ;
 281                     677.16182999               0 1                          ;
 282                     648.54138792               0 1                          ;
 283                     640.79199563               0 1                          ;
 284                     653.48707785               0 1                          ;
 285                      652.5147806               0 1                          ;
 286                     660.28820248               0 1                          ;
 287                     678.42513557               0 1                          ;
 288                     676.08680625               0 1                          ;
 289                     665.08270624               0 1                          ;
 290                     664.84616497               0 1                          ;
 291                     679.29160251               0 1                          ;
 292                     672.41503498               0 1                          ;
 293                     676.62967472               0 1                          ;
 294                     671.46932046               0 1                          ;
 295                     666.37745054               0 1                          ;
 296                     659.85546963               0 1                          ;
 297                     657.97275133               0 1                          ;
 298                      650.6174443               0 1                          ;
 299                      650.6174443               0 1                          ;
 300                     658.69724344               0 1                          ;
 301                     654.74557751               0 1                          ;
 302                     668.76584151               0 1                          ;
 303                     655.76318055               0 1                          ;
 304                     663.56608874               0 1                          ;
 305                     673.00310911               0 1                          ;
 306                     677.16608523               0 1                          ;
 307                     681.06383476               0 1                          ;
 308                     684.68359199               0 1                          ;
 309                     706.11548236               0 1                          ;
 310                     702.75559513               0 1                          ;
 311                     686.77451667               0 1                          ;
 312                     711.17891727               0 1                          ;
 313                     704.42530114               0 1                          ;
 314                     705.12015676               0 1                          ;
 315                     705.49021243               0 1                          ;
 316                     695.25601044               0 1                          ;
 317                     698.16003634               0 1                          ;
 318                     683.40331551               0 1                          ;
 319                     698.13570638               0 1                          ;
 320                     699.27631088               0 1                          ;
 321                     682.98154616               0 1                          ;
 322                     697.62082238               0 1                          ;
 323                      686.7396237               0 1                          ;
 324                      691.6181309               0 1                          ;
 325                     680.19316265               0 1                          ;
 326                      685.8246971               0 1                          ;
 327                     680.77723185               0 1                          ;
 328                     685.80402164               0 1                          ;
 329                     675.85462035               0 1                          ;
 330                      670.9825711               0 1                          ;
 331                     670.72099901               0 1                          ;
 332                     676.49110409               0 1                          ;
 333                     668.59077594               0 1                          ;
 334                     670.19595249               0 1                          ;
 335                     672.74388992               0 1                          ;
 336                     672.99885387               0 1                          ;
 337                     665.42232443               0 1                          ;
 338                     670.79033439               0 1                          ;
 339                     663.66280784               0 1                          ;
 340                     678.56696021               0 1                          ;
 341                     678.05232651               0 1                          ;
 342                     694.66563347               0 1                          ;
 343                     688.45618741               0 1                          ;
 344                     677.44132415               0 1                          ;
 345                     678.49001547               0 1                          ;
 346                     673.61881727               0 1                          ;
 347                     684.21771833               0 1                          ;
 348                     689.95408186               0 1                          ;
 349                     693.65558975               0 1                          ;
 350                     689.60835615               0 1                          ;
 351                     690.71597002               0 1                          ;
 352                     685.46094919               0 1                          ;
 353                     684.63187831               0 1                          ;
 354                     685.72036863               0 1                          ;
 355                     694.02940004               0 1                          ;
 356                     692.13301491               0 1                          ;
 357                      689.2659345               0 1                          ;
 358                     679.60483821               0 1                          ;
 359                     685.29529521               0 1                          ;
 360                     687.93049009               0 1                          ;